pcf
* control data
             restart          estimation
        10        49         3         0         5
         2         5              single               point
   2.000000E+01  -3.000000E+00   3.000000E-01   1.000000E-02        -7
   1.000000E+01   1.000000E+01   1.000000E-03
   1.000000E-01
   50  1.000000E-02         3         3   1.000000E-02         3
         0         0         0
* singular value decomposition
         1
  10000000    1.000000E-06
1
* parameter groups
apex                   relative              1.0000000000E-02      0.0 switch                2.0000000000E+00      parabolic             1.0000000000E-05      5.0000000000E-01      smaller
hk                     relative              1.0000000000E-02      0.0 switch                2.0000000000E+00      parabolic             1.0000000000E-05      5.0000000000E-01      smaller
sy                     relative              1.0000000000E-02      0.0 switch                2.0000000000E+00      parabolic             1.0000000000E-05      5.0000000000E-01      smaller
* parameter data
hk01                  log                   factor                1.0000000000E+00      1.0000000000E-02      1.0000000000E+02      hk                    1.0000000000E+00      0.0000000000E+00      1
hk02                  log                   factor                1.0000000000E+00      1.0000000000E-02      1.0000000000E+02      hk                    1.0000000000E+00      0.0000000000E+00      1
p012                  log                   factor                2.5000000000E+00      1.5000000000E+00      2.5000000000E+00      apex                  1.0000000000E+00      0.0000000000E+00      1
p016                  log                   factor                1.0000000000E+00      1.0000000000E+00      1.5000000000E+00      apex                  1.0000000000E+00      0.0000000000E+00      1
p017                  log                   factor                2.5000000000E-01      1.0000000000E-05      5.0000000000E-01      apex                  1.0000000000E+00      0.0000000000E+00      1
p091                  log                   factor                1.0000000000E-01      1.0000000000E-03      1.0000000000E+00      apex                  1.0000000000E+00      0.0000000000E+00      1
p092                  log                   factor                1.0000000000E+00      1.0000000000E-01      2.0000000000E+00      apex                  1.0000000000E+00      0.0000000000E+00      1
p095                  log                   factor                7.0000000000E+00      1.0000000000E-05      1.5000000000E+01      apex                  1.0000000000E+00      0.0000000000E+00      1
sy01                  log                   factor                2.0000000000E-01      1.0000000000E-03      5.0000000000E-01      sy                    1.0000000000E+00      0.0000000000E+00      1
sy02                  log                   factor                2.0000000000E-01      1.0000000000E-03      5.0000000000E-01      sy                    1.0000000000E+00      0.0000000000E+00      1
* observation groups
gw_098
gw_124
stf_012
stf_057
stf_075
* observation data
 gw_098_20020305      -30.45000        33.7688      gw_098
 gw_098_20020516      -30.58000        33.7688      gw_098
 gw_098_20020612      -30.54000        33.7688      gw_098
 gw_098_20020701      -30.47000        33.7688      gw_098
 gw_098_20021008      -30.56000        33.7688      gw_098
 gw_098_20021125      -30.59000        33.7688      gw_098
 gw_124_20020305      -7.830000        3.51435      gw_124
 gw_124_20020516      -5.710000        3.51435      gw_124
 gw_124_20020522      -8.810000        3.51435      gw_124
 gw_124_20020612      -8.470000        3.51435      gw_124
 gw_124_20020710      -8.300000        3.51435      gw_124
 gw_124_20021008      -8.860000        3.51435      gw_124
 gw_124_20021205      -9.200000        3.51435      gw_124
 stf_012_200201        1.400000        2.91022      stf_012
 stf_012_200202        1.330000        2.91022      stf_012
 stf_012_200203        1.640000        2.91022      stf_012
 stf_012_200204        5.050000        2.91022      stf_012
 stf_012_200205        9.670000        2.91022      stf_012
 stf_012_200206        6.560000        2.91022      stf_012
 stf_012_200207        2.350000        2.91022      stf_012
 stf_012_200208        2.000000        2.91022      stf_012
 stf_012_200209        3.750000        2.91022      stf_012
 stf_012_200210        3.450000        2.91022      stf_012
 stf_012_200211        2.330000        2.91022      stf_012
 stf_012_200212        1.660000        2.91022      stf_012
 stf_057_200201        6.530000        1.67118      stf_057
 stf_057_200202        5.410000        1.67118      stf_057
 stf_057_200203        4.970000        1.67118      stf_057
 stf_057_200204        9.190000        1.67118      stf_057
 stf_057_200205        15.35000        1.67118      stf_057
 stf_057_200206        10.41000        1.67118      stf_057
 stf_057_200207        4.140000        1.67118      stf_057
 stf_057_200208        3.240000        1.67118      stf_057
 stf_057_200209        9.220000        1.67118      stf_057
 stf_057_200210        9.090000        1.67118      stf_057
 stf_057_200211        7.660000        1.67118      stf_057
 stf_057_200212        6.480000        1.67118      stf_057
 stf_075_200201        6.920000        1.50407      stf_075
 stf_075_200202        5.950000        1.50407      stf_075
 stf_075_200203        5.000000        1.50407      stf_075
 stf_075_200204        3.010000        1.50407      stf_075
 stf_075_200205        7.900000        1.50407      stf_075
 stf_075_200206        4.830000        1.50407      stf_075
 stf_075_200207       0.4000000        1.50407      stf_075
 stf_075_200208       0.1300000        1.50407      stf_075
 stf_075_200209        6.820000        1.50407      stf_075
 stf_075_200210        6.880000        1.50407      stf_075
 stf_075_200211        8.190000        1.50407      stf_075
 stf_075_200212        7.420000        1.50407      stf_075
* model command line
python forward_run.py
* model input/output
MODFLOW\mf_1000.pval.tpl mf_1000.pval
PARM1501.DAT.tpl PARM1501.DAT
dtw_5895.txt.ins dtw_5895.txt
dtw_6273.txt.ins dtw_6273.txt
stf_012.txt.ins stf_012.txt
stf_057.txt.ins stf_057.txt
stf_075.txt.ins stf_075.txt
