 Head values for selected MODFLOW cells
   2615.32   2257.27   2172.56   2103.93   2240.43   2173.52   2132.82   2059.39   2056.29   1858.02
   2615.32   2257.27   2172.56   2103.93   2240.43   2173.52   2132.82   2059.40   2056.30   1858.03
   2615.32   2257.27   2172.56   2103.93   2240.43   2173.52   2132.82   2059.40   2056.30   1858.03
   2615.32   2257.27   2172.56   2103.93   2240.43   2173.52   2132.81   2059.40   2056.30   1858.03
   2615.32   2257.27   2172.56   2103.93   2240.43   2173.52   2132.81   2059.40   2056.30   1858.03
   2615.32   2257.27   2172.56   2103.93   2240.43   2173.52   2132.81   2059.40   2056.30   1858.04
   2615.32   2257.27   2172.56   2103.93   2240.43   2173.52   2132.80   2059.41   2056.30   1858.04
   2615.32   2257.27   2172.56   2103.93   2240.43   2173.52   2132.80   2059.41   2056.30   1858.04
   2615.32   2257.27   2172.56   2103.93   2240.43   2173.52   2132.80   2059.41   2056.31   1858.05
   2615.32   2257.27   2172.56   2103.93   2240.43   2173.52   2132.79   2059.41   2056.31   1858.05
   2615.32   2257.27   2172.56   2103.93   2240.43   2173.52   2132.79   2059.41   2056.31   1858.06
   2615.32   2257.27   2172.56   2103.93   2240.43   2173.52   2132.79   2059.42   2056.31   1858.06
   2615.32   2257.27   2172.56   2103.93   2240.43   2173.52   2132.78   2059.42   2056.31   1858.07
   2615.32   2257.27   2172.56   2103.93   2240.43   2173.52   2132.78   2059.42   2056.31   1858.07
   2615.32   2257.27   2172.56   2103.93   2240.43   2173.52   2132.78   2059.42   2056.31   1858.08
   2615.32   2257.27   2172.56   2103.93   2240.43   2173.52   2132.78   2059.42   2056.31   1858.09
   2615.32   2257.27   2172.56   2103.94   2240.43   2173.52   2132.77   2059.43   2056.32   1858.09
   2615.32   2257.27   2172.56   2103.94   2240.43   2173.52   2132.77   2059.43   2056.32   1858.10
   2615.32   2257.27   2172.56   2103.94   2240.43   2173.52   2132.77   2059.43   2056.32   1858.11
   2615.32   2257.27   2172.56   2103.94   2240.43   2173.52   2132.76   2059.43   2056.32   1858.11
   2615.32   2257.27   2172.56   2103.94   2240.43   2173.52   2132.76   2059.44   2056.32   1858.12
   2615.32   2257.27   2172.56   2103.94   2240.43   2173.52   2132.76   2059.44   2056.32   1858.13
   2615.32   2257.27   2172.56   2103.94   2240.43   2173.52   2132.75   2059.44   2056.32   1858.14
   2615.32   2257.27   2172.56   2103.94   2240.43   2173.52   2132.75   2059.44   2056.33   1858.14
   2615.32   2257.27   2172.56   2103.94   2240.43   2173.52   2132.75   2059.44   2056.33   1858.15
   2615.32   2257.27   2172.56   2103.94   2240.43   2173.52   2132.74   2059.45   2056.33   1858.16
   2615.32   2257.27   2172.56   2103.94   2240.43   2173.52   2132.74   2059.45   2056.33   1858.17
   2615.32   2257.27   2172.56   2103.94   2240.43   2173.52   2132.74   2059.45   2056.33   1858.17
   2615.32   2257.27   2172.56   2103.94   2240.43   2173.52   2132.74   2059.45   2056.33   1858.18
   2615.32   2257.27   2172.56   2103.94   2240.43   2173.52   2132.73   2059.45   2056.33   1858.19
   2615.32   2257.27   2172.56   2103.94   2240.43   2173.52   2132.73   2059.46   2056.33   1858.20
   2615.32   2257.27   2172.56   2103.94   2240.43   2173.52   2132.73   2059.46   2056.34   1858.21
   2615.32   2257.27   2172.56   2103.94   2240.43   2173.52   2132.72   2059.46   2056.34   1858.21
   2615.32   2257.27   2172.56   2103.94   2240.43   2173.52   2132.72   2059.46   2056.34   1858.22
   2615.32   2257.27   2172.56   2103.94   2240.43   2173.52   2132.72   2059.46   2056.34   1858.23
   2615.32   2257.27   2172.56   2103.94   2240.43   2173.52   2132.71   2059.47   2056.34   1858.24
   2615.32   2257.27   2172.56   2103.94   2240.43   2173.52   2132.71   2059.47   2056.34   1858.24
   2615.32   2257.27   2172.56   2103.94   2240.43   2173.52   2132.71   2059.47   2056.34   1858.25
   2615.32   2257.27   2172.56   2103.94   2240.43   2173.52   2132.70   2059.47   2056.35   1858.26
   2615.32   2257.28   2172.56   2103.94   2240.43   2173.52   2132.70   2059.47   2056.35   1858.27
   2615.32   2257.28   2172.56   2103.94   2240.43   2173.52   2132.70   2059.48   2056.35   1858.28
   2615.32   2257.28   2172.56   2103.94   2240.43   2173.52   2132.70   2059.48   2056.35   1858.28
   2615.32   2257.28   2172.56   2103.94   2240.43   2173.52   2132.69   2059.48   2056.35   1858.29
   2615.32   2257.28   2172.56   2103.94   2240.43   2173.52   2132.69   2059.48   2056.35   1858.30
   2615.32   2257.28   2172.56   2103.94   2240.43   2173.52   2132.69   2059.48   2056.35   1858.31
   2615.32   2257.28   2172.56   2103.94   2240.43   2173.52   2132.68   2059.49   2056.35   1858.31
   2615.32   2257.28   2172.56   2103.94   2240.43   2173.52   2132.68   2059.49   2056.36   1858.32
   2615.32   2257.28   2172.56   2103.94   2240.43   2173.52   2132.68   2059.49   2056.36   1858.33
   2615.32   2257.28   2172.56   2103.95   2240.43   2173.52   2132.67   2059.49   2056.36   1858.34
   2615.32   2257.28   2172.56   2103.95   2240.43   2173.52   2132.67   2059.49   2056.36   1858.35
   2615.32   2257.28   2172.56   2103.95   2240.43   2173.52   2132.67   2059.50   2056.36   1858.35
   2615.32   2257.28   2172.56   2103.95   2240.43   2173.52   2132.66   2059.50   2056.36   1858.36
   2615.32   2257.28   2172.56   2103.95   2240.43   2173.52   2132.66   2059.50   2056.36   1858.37
   2615.32   2257.28   2172.56   2103.95   2240.43   2173.52   2132.66   2059.50   2056.36   1858.38
   2615.32   2257.28   2172.56   2103.95   2240.43   2173.52   2132.66   2059.50   2056.37   1858.38
   2615.32   2257.28   2172.56   2103.95   2240.43   2173.52   2132.65   2059.51   2056.37   1858.39
   2615.32   2257.28   2172.56   2103.95   2240.43   2173.52   2132.65   2059.51   2056.37   1858.40
   2615.32   2257.28   2172.56   2103.95   2240.43   2173.52   2132.65   2059.51   2056.37   1858.41
   2615.32   2257.28   2172.56   2103.95   2240.43   2173.52   2132.64   2059.51   2056.37   1858.42
   2615.32   2257.28   2172.56   2103.95   2240.43   2173.52   2132.64   2059.51   2056.37   1858.42
   2615.32   2257.28   2172.56   2103.95   2240.43   2173.52   2132.64   2059.52   2056.37   1858.43
   2615.32   2257.28   2172.56   2103.95   2240.43   2173.52   2132.63   2059.52   2056.38   1858.44
   2615.32   2257.28   2172.56   2103.95   2240.43   2173.52   2132.63   2059.52   2056.38   1858.45
   2615.32   2257.28   2172.56   2103.95   2240.43   2173.52   2132.63   2059.52   2056.38   1858.45
   2615.32   2257.28   2172.56   2103.95   2240.43   2173.52   2132.62   2059.52   2056.38   1858.46
   2615.32   2257.28   2172.56   2103.95   2240.43   2173.52   2132.62   2059.53   2056.38   1858.47
   2615.32   2257.28   2172.56   2103.95   2240.43   2173.52   2132.62   2059.53   2056.38   1858.48
   2615.32   2257.28   2172.56   2103.95   2240.43   2173.52   2132.61   2059.53   2056.38   1858.48
   2615.32   2257.28   2172.56   2103.95   2240.43   2173.52   2132.61   2059.53   2056.38   1858.49
   2615.32   2257.28   2172.56   2103.95   2240.43   2173.52   2132.61   2059.54   2056.39   1858.50
   2615.32   2257.28   2172.56   2103.95   2240.43   2173.52   2132.61   2059.54   2056.39   1858.51
   2615.32   2257.28   2172.56   2103.95   2240.43   2173.52   2132.60   2059.54   2056.39   1858.52
   2615.32   2257.28   2172.56   2103.95   2240.43   2173.52   2132.60   2059.54   2056.39   1858.52
   2615.32   2257.28   2172.56   2103.95   2240.43   2173.52   2132.60   2059.54   2056.39   1858.53
   2615.32   2257.28   2172.56   2103.95   2240.43   2173.52   2132.59   2059.55   2056.39   1858.54
   2615.32   2257.28   2172.56   2103.95   2240.43   2173.52   2132.59   2059.55   2056.39   1858.55
   2615.32   2257.28   2172.56   2103.95   2240.43   2173.52   2132.59   2059.55   2056.39   1858.55
   2615.32   2257.28   2172.56   2103.95   2240.43   2173.52   2132.58   2059.55   2056.40   1858.56
   2615.32   2257.28   2172.56   2103.95   2240.43   2173.52   2132.58   2059.55   2056.40   1858.57
   2615.32   2257.28   2172.56   2103.95   2240.43   2173.52   2132.58   2059.55   2056.40   1858.58
   2615.32   2257.28   2172.56   2103.96   2240.43   2173.52   2132.58   2059.56   2056.40   1858.59
   2615.32   2257.28   2172.56   2103.96   2240.43   2173.52   2132.57   2059.56   2056.40   1858.59
   2615.32   2257.28   2172.56   2103.96   2240.43   2173.52   2132.57   2059.56   2056.40   1858.60
   2615.32   2257.28   2172.56   2103.96   2240.43   2173.52   2132.57   2059.56   2056.40   1858.61
   2615.32   2257.28   2172.56   2103.96   2240.43   2173.52   2132.56   2059.56   2056.40   1858.62
   2615.32   2257.28   2172.56   2103.96   2240.43   2173.52   2132.56   2059.57   2056.41   1858.62
   2615.32   2257.28   2172.56   2103.96   2240.43   2173.52   2132.56   2059.57   2056.41   1858.63
   2615.32   2257.28   2172.56   2103.96   2240.43   2173.52   2132.55   2059.57   2056.41   1858.64
   2615.32   2257.28   2172.56   2103.96   2240.43   2173.52   2132.55   2059.57   2056.41   1858.65
   2615.32   2257.28   2172.56   2103.96   2240.43   2173.52   2132.55   2059.57   2056.41   1858.66
   2615.32   2257.28   2177.23   2103.96   2240.43   2173.52   2132.54   2059.58   2056.41   1858.66
   2615.32   2257.29   2177.26   2103.96   2240.43   2173.52   2132.54   2059.58   2056.41   1858.67
   2615.34   2257.30   2177.28   2103.96   2240.43   2173.52   2132.54   2059.58   2056.41   1858.68
   2615.35   2257.31   2177.32   2103.96   2240.43   2173.52   2132.54   2059.58   2056.42   1858.69
   2615.37   2257.33   2177.35   2103.96   2240.43   2173.52   2132.53   2059.58   2056.42   1858.69
   2615.38   2257.34   2177.38   2103.96   2240.43   2173.52   2132.53   2059.59   2056.42   1858.70
   2615.39   2257.35   2177.42   2103.96   2240.43   2173.52   2132.53   2059.59   2056.42   1858.71
   2615.39   2257.35   2177.45   2103.96   2240.43   2173.52   2132.52   2059.59   2056.42   1858.72
   2615.40   2257.36   2177.48   2103.96   2240.43   2173.52   2132.52   2059.59   2056.42   1858.73
   2615.40   2257.36   2177.51   2103.96   2240.43   2173.52   2132.52   2059.59   2056.42   1858.73
   2615.40   2257.36   2177.55   2103.96   2240.43   2173.52   2132.51   2059.60   2056.42   1858.74
   2615.41   2257.36   2177.58   2103.96   2240.43   2173.52   2132.51   2059.60   2056.43   1858.75
   2615.41   2257.37   2177.61   2103.96   2240.43   2173.52   2132.51   2059.60   2056.43   1858.76
   2615.41   2257.37   2177.68   2103.96   2240.43   2173.52   2132.51   2059.60   2056.43   1858.76
   2615.41   2257.37   2177.75   2103.96   2240.43   2173.52   2132.50   2059.60   2056.43   1858.77
   2615.41   2257.37   2177.81   2103.96   2240.43   2173.52   2132.50   2059.61   2056.43   1858.78
   2615.41   2257.37   2177.88   2103.96   2240.43   2173.52   2132.50   2059.61   2056.43   1858.79
   2615.41   2257.37   2177.95   2103.96   2240.43   2173.52   2132.49   2059.61   2056.43   1858.80
   2615.41   2257.37   2178.02   2103.96   2240.43   2173.52   2132.49   2059.61   2056.43   1858.80
   2615.41   2257.37   2178.08   2103.96   2240.44   2173.52   2132.49   2059.61   2056.44   1858.81
   2615.41   2257.37   2178.15   2103.96   2240.44   2173.52   2132.48   2059.62   2056.44   1858.82
   2615.41   2257.37   2178.22   2103.97   2240.44   2173.52   2132.48   2059.62   2056.44   1858.83
   2615.41   2257.37   2178.29   2103.97   2240.44   2173.52   2132.48   2059.62   2056.44   1858.83
   2615.41   2257.37   2178.35   2103.97   2240.44   2173.52   2132.47   2059.62   2056.44   1858.84
   2615.41   2257.37   2178.40   2103.97   2240.44   2173.52   2132.47   2059.62   2056.44   1858.85
   2615.41   2257.37   2178.46   2103.97   2240.44   2173.52   2132.47   2059.63   2056.44   1858.86
   2615.41   2257.37   2178.52   2103.97   2240.44   2173.52   2132.47   2059.63   2056.44   1858.87
   2615.41   2257.37   2178.58   2103.97   2240.44   2173.52   2132.46   2059.63   2056.45   1858.87
   2615.41   2257.37   2178.64   2103.97   2240.44   2173.52   2132.46   2059.63   2056.45   1858.88
   2615.41   2257.37   2178.70   2103.97   2240.44   2173.52   2132.46   2059.63   2056.45   1858.89
   2615.41   2257.37   2178.76   2103.97   2240.44   2173.52   2132.45   2059.64   2056.45   1858.90
   2615.41   2257.37   2178.82   2103.97   2240.44   2173.52   2132.45   2059.64   2056.45   1858.90
   2615.41   2257.37   2178.88   2103.97   2240.44   2173.52   2132.45   2059.64   2056.45   1858.91
   2615.41   2257.37   2178.93   2103.97   2240.44   2173.52   2132.44   2059.64   2056.45   1858.92
   2615.41   2257.37   2178.99   2103.97   2240.44   2173.52   2132.44   2059.64   2056.45   1858.93
   2615.41   2257.37   2179.05   2103.97   2240.44   2173.52   2132.44   2059.64   2056.46   1858.94
   2615.41   2257.37   2179.11   2103.97   2240.44   2173.52   2132.44   2059.65   2056.46   1858.94
   2615.41   2257.37   2179.17   2103.97   2240.44   2173.52   2132.43   2059.65   2056.46   1858.95
   2615.41   2257.37   2179.23   2103.97   2240.44   2173.52   2132.43   2059.65   2056.46   1858.96
   2615.41   2257.37   2179.29   2103.97   2240.44   2173.52   2132.43   2059.65   2056.46   1858.97
   2615.41   2257.37   2179.35   2103.97   2240.44   2173.52   2132.42   2059.65   2056.46   1858.97
   2615.41   2257.37   2179.40   2103.97   2240.44   2173.52   2132.42   2059.66   2056.46   1858.98
   2615.41   2257.37   2179.46   2103.97   2240.44   2173.52   2132.42   2059.66   2056.46   1858.99
   2615.41   2257.37   2179.52   2103.97   2240.44   2173.52   2132.41   2059.66   2056.46   1859.00
   2615.41   2257.37   2179.55   2103.97   2240.44   2173.52   2132.41   2059.66   2056.47   1859.06
   2615.41   2257.37   2179.58   2103.97   2240.44   2173.52   2132.41   2059.66   2056.47   1859.12
   2615.41   2257.37   2179.60   2103.97   2240.44   2173.52   2132.41   2059.67   2056.47   1859.18
   2615.41   2257.37   2179.63   2103.97   2240.44   2173.52   2132.40   2059.67   2056.47   1859.24
   2615.41   2257.37   2179.66   2103.97   2240.44   2173.52   2132.40   2059.67   2056.47   1859.30
   2615.41   2257.37   2179.69   2103.97   2240.44   2173.52   2132.40   2059.67   2056.47   1859.36
   2615.41   2257.37   2179.71   2103.97   2240.44   2173.52   2132.39   2059.67   2056.47   1859.42
   2615.41   2257.37   2179.74   2103.97   2240.44   2173.52   2132.39   2059.68   2056.47   1859.48
   2615.41   2257.37   2179.77   2103.98   2240.44   2173.52   2132.39   2059.68   2056.48   1859.54
   2615.41   2257.37   2179.79   2103.98   2240.44   2173.52   2132.38   2059.68   2056.48   1859.60
   2615.41   2257.37   2179.82   2103.98   2240.44   2173.52   2132.38   2059.68   2056.48   1859.67
   2615.41   2257.37   2179.85   2103.98   2240.44   2173.52   2132.38   2059.68   2056.48   1859.73
   2615.41   2257.37   2179.88   2103.98   2240.44   2173.52   2132.38   2059.68   2056.48   1859.79
   2615.41   2257.37   2179.90   2103.98   2240.44   2173.52   2132.37   2059.69   2056.48   1859.85
   2615.41   2257.37   2179.93   2103.98   2240.44   2173.52   2132.37   2059.69   2056.48   1859.91
   2615.41   2257.37   2179.96   2103.98   2240.44   2173.52   2132.37   2059.69   2056.48   1859.97
   2615.41   2257.37   2179.98   2103.98   2240.44   2173.52   2132.36   2059.69   2056.48   1860.03
   2615.41   2257.37   2180.01   2103.98   2240.44   2173.52   2132.36   2059.69   2056.49   1860.09
   2615.41   2257.37   2180.04   2103.98   2240.44   2173.52   2132.36   2059.70   2056.49   1860.15
   2615.41   2257.37   2180.07   2103.98   2240.44   2173.52   2132.35   2059.70   2056.49   1860.21
   2615.41   2257.37   2180.09   2103.98   2240.44   2173.52   2132.35   2059.70   2056.49   1860.27
   2615.41   2257.37   2180.12   2103.98   2240.44   2173.52   2132.35   2059.70   2056.49   1860.33
   2615.41   2257.37   2180.15   2103.98   2240.44   2173.52   2132.34   2059.70   2056.49   1860.39
   2615.41   2257.37   2180.17   2103.98   2240.44   2173.52   2132.34   2059.71   2056.49   1860.45
   2615.41   2257.37   2180.20   2103.98   2240.44   2173.52   2132.34   2059.71   2056.49   1860.52
   2615.41   2257.37   2180.23   2103.98   2240.44   2173.52   2132.34   2059.71   2056.50   1860.58
   2615.41   2257.37   2180.26   2103.98   2240.44   2173.52   2132.33   2059.71   2056.50   1860.64
   2615.41   2257.37   2180.28   2103.98   2240.44   2173.52   2132.33   2059.71   2056.50   1860.70
   2615.41   2257.37   2180.31   2103.98   2240.44   2173.52   2132.33   2059.71   2056.50   1860.76
   2615.41   2257.37   2180.34   2103.98   2240.44   2173.52   2132.32   2059.72   2056.50   1860.82
   2615.41   2257.37   2180.36   2103.98   2240.44   2173.52   2132.32   2059.72   2056.50   1860.88
   2615.41   2257.37   2180.39   2103.98   2240.44   2173.52   2132.32   2059.72   2056.50   1860.94
   2615.41   2257.37   2180.42   2103.98   2240.44   2173.52   2132.31   2059.72   2056.50   1861.00
   2615.41   2257.37   2180.44   2103.98   2240.44   2173.52   2132.31   2059.72   2056.50   1861.06
   2615.41   2257.37   2180.47   2103.98   2240.44   2173.52   2132.31   2059.73   2056.51   1861.12
   2615.41   2257.37   2180.50   2103.98   2240.44   2173.52   2132.31   2059.73   2056.51   1861.18
   2615.41   2257.38   2180.53   2103.98   2240.44   2173.52   2132.30   2059.73   2056.51   1861.24
   2615.41   2257.38   2180.55   2103.99   2240.44   2173.52   2132.30   2059.73   2056.51   1861.30
   2615.41   2257.38   2180.58   2103.99   2240.44   2173.52   2132.30   2059.73   2056.51   1861.37
   2615.41   2257.38   2180.61   2103.99   2240.44   2173.52   2132.29   2059.74   2056.51   1861.43
   2615.41   2257.38   2180.63   2103.99   2240.44   2173.52   2132.29   2059.74   2056.51   1861.49
   2615.41   2257.38   2180.66   2103.99   2240.44   2173.52   2132.29   2059.74   2056.51   1861.55
   2615.41   2257.38   2180.69   2103.99   2240.44   2173.52   2132.29   2059.74   2056.52   1861.61
   2615.41   2257.38   2180.72   2103.99   2240.44   2173.52   2132.28   2059.74   2056.52   1861.67
   2615.41   2257.38   2180.74   2103.99   2240.44   2173.52   2132.28   2059.74   2056.52   1861.73
   2615.41   2257.38   2180.77   2103.99   2240.44   2173.52   2132.28   2059.75   2056.52   1861.79
   2615.41   2257.38   2180.80   2103.99   2240.44   2173.52   2132.27   2059.75   2056.52   1861.85
   2615.41   2257.38   2180.82   2103.99   2240.44   2173.52   2132.27   2059.75   2056.52   1861.91
   2615.41   2257.38   2180.85   2103.99   2240.44   2173.52   2132.27   2059.75   2056.52   1861.97
   2615.41   2257.38   2180.88   2103.99   2240.44   2173.52   2132.26   2059.75   2056.52   1862.03
   2615.41   2257.38   2180.91   2103.99   2240.44   2173.52   2132.26   2059.76   2056.52   1862.09
   2615.41   2257.38   2180.93   2103.99   2240.44   2173.52   2132.26   2059.76   2056.53   1862.15
   2615.41   2257.38   2180.96   2103.99   2240.44   2173.52   2132.26   2059.76   2056.53   1862.22
   2615.41   2257.38   2180.99   2103.99   2240.44   2173.52   2132.25   2059.76   2056.53   1862.28
   2615.41   2257.38   2181.01   2103.99   2240.44   2173.52   2132.25   2059.76   2056.53   1862.34
   2615.41   2257.38   2181.04   2103.99   2240.44   2173.52   2132.25   2059.76   2056.53   1862.40
   2615.41   2257.38   2181.07   2103.99   2240.44   2173.52   2132.24   2059.77   2056.53   1862.46
   2615.41   2257.38   2181.10   2103.99   2240.44   2173.52   2132.24   2059.77   2056.53   1862.52
   2615.41   2257.38   2181.12   2103.99   2240.44   2173.52   2132.24   2059.77   2056.53   1862.58
   2615.41   2257.38   2181.15   2103.99   2240.44   2173.52   2132.23   2059.77   2056.53   1862.64
   2615.41   2257.38   2181.18   2103.99   2240.44   2173.52   2132.23   2059.77   2056.54   1862.70
   2615.41   2257.38   2181.20   2103.99   2240.44   2173.52   2132.23   2059.78   2056.54   1862.76
   2615.41   2257.38   2181.23   2103.99   2240.44   2173.52   2132.23   2059.78   2056.54   1862.82
   2615.41   2257.38   2181.26   2103.99   2240.44   2173.52   2132.22   2059.78   2056.54   1862.88
   2615.41   2257.38   2181.29   2103.99   2240.44   2173.52   2132.22   2059.78   2056.54   1862.94
   2615.41   2257.38   2181.31   2103.99   2240.44   2173.52   2132.22   2059.78   2056.54   1863.00
   2615.41   2257.38   2181.36   2104.00   2240.44   2173.52   2132.21   2059.78   2056.54   1863.07
   2615.41   2257.38   2181.41   2104.00   2240.44   2173.52   2132.21   2059.79   2056.54   1863.13
   2615.41   2257.38   2181.46   2104.00   2240.44   2173.52   2132.21   2059.79   2056.54   1863.19
   2615.41   2257.38   2181.52   2104.00   2240.44   2173.52   2132.20   2059.79   2056.55   1863.25
   2615.41   2257.38   2181.57   2104.00   2240.44   2173.52   2132.20   2059.79   2056.55   1863.31
   2615.41   2257.38   2181.62   2104.00   2240.44   2173.52   2132.20   2059.79   2056.55   1863.37
   2615.41   2257.38   2181.67   2104.00   2240.44   2173.52   2132.20   2059.80   2056.55   1863.43
   2615.41   2257.38   2181.72   2104.00   2240.44   2173.52   2132.19   2059.80   2056.55   1863.49
   2615.41   2257.38   2181.77   2104.00   2240.44   2173.52   2132.19   2059.80   2056.55   1863.55
   2615.41   2257.38   2181.82   2104.00   2240.44   2173.52   2132.19   2059.80   2056.55   1863.61
   2615.41   2257.38   2181.88   2104.00   2240.44   2173.52   2132.18   2059.80   2056.55   1863.67
   2615.41   2257.38   2181.93   2104.00   2240.44   2173.52   2132.18   2059.80   2056.55   1863.73
   2615.41   2257.38   2181.98   2104.00   2240.44   2173.52   2132.18   2059.81   2056.56   1863.79
   2615.41   2257.38   2182.03   2104.00   2240.44   2173.52   2132.17   2059.81   2056.56   1863.85
   2615.41   2257.38   2182.08   2104.00   2240.44   2173.52   2132.17   2059.81   2056.56   1863.92
   2615.41   2257.38   2182.13   2104.00   2240.44   2173.52   2132.17   2059.81   2056.56   1863.98
   2615.41   2257.38   2182.18   2104.00   2240.44   2173.52   2132.17   2059.81   2056.56   1864.04
   2615.41   2257.38   2182.26   2104.00   2240.44   2173.52   2132.16   2059.82   2056.56   1864.10
   2615.41   2257.38   2182.28   2104.00   2240.44   2173.52   2132.16   2059.82   2056.56   1864.17
   2615.41   2257.38   2182.30   2104.00   2240.44   2173.52   2132.16   2059.82   2056.56   1864.24
   2615.41   2257.38   2182.32   2104.00   2240.44   2173.52   2132.15   2059.82   2056.56   1864.31
   2615.41   2257.38   2182.34   2104.00   2240.44   2173.52   2132.15   2059.82   2056.57   1864.38
   2615.41   2257.38   2182.37   2104.00   2240.44   2173.52   2132.15   2059.82   2056.57   1864.44
   2615.41   2257.38   2182.39   2104.00   2240.44   2173.52   2132.15   2059.83   2056.57   1864.51
   2615.41   2257.38   2182.41   2104.00   2240.44   2173.52   2132.14   2059.83   2056.57   1864.58
   2615.41   2257.38   2182.43   2104.00   2240.44   2173.52   2132.14   2059.83   2056.57   1864.65
   2615.41   2257.38   2182.45   2104.00   2240.44   2173.52   2132.14   2059.83   2056.57   1864.71
   2615.41   2257.38   2182.48   2104.00   2240.44   2173.52   2132.13   2059.83   2056.57   1864.78
   2615.41   2257.38   2182.50   2104.00   2240.44   2173.52   2132.13   2059.83   2056.57   1864.85
   2615.41   2257.38   2182.52   2104.01   2240.44   2173.52   2132.13   2059.84   2056.57   1864.92
   2615.41   2257.38   2182.54   2104.01   2240.44   2173.52   2132.12   2059.84   2056.58   1864.98
   2615.41   2257.38   2182.56   2104.01   2240.44   2173.52   2132.12   2059.84   2056.58   1865.05
   2615.41   2257.38   2182.59   2104.01   2240.44   2173.52   2132.12   2059.84   2056.58   1865.12
   2615.41   2257.38   2182.61   2104.01   2240.44   2173.52   2132.12   2059.84   2056.58   1865.19
   2615.41   2257.38   2182.63   2104.01   2240.44   2173.52   2132.11   2059.85   2056.58   1865.26
   2615.41   2257.38   2182.65   2104.01   2240.44   2173.52   2132.11   2059.85   2056.58   1865.32
   2615.41   2257.38   2182.67   2104.01   2240.44   2173.52   2132.11   2059.85   2056.58   1865.39
   2615.41   2257.38   2182.69   2104.01   2240.44   2173.52   2132.10   2059.85   2056.58   1865.46
   2615.41   2257.38   2182.72   2104.01   2240.44   2173.52   2132.10   2059.85   2056.58   1865.53
   2615.41   2257.38   2182.74   2104.01   2240.44   2173.52   2132.10   2059.85   2056.59   1865.59
   2615.41   2257.38   2182.76   2104.01   2240.44   2173.52   2132.09   2059.86   2056.59   1865.66
   2615.41   2257.38   2182.80   2104.01   2240.44   2173.52   2132.09   2059.86   2056.59   1865.73
   2615.41   2257.38   2182.84   2104.01   2240.44   2173.52   2132.09   2059.86   2056.59   1865.80
   2615.41   2257.38   2182.88   2104.01   2240.44   2173.52   2132.09   2059.86   2056.59   1865.86
   2615.41   2257.38   2182.92   2104.01   2240.44   2173.52   2132.08   2059.86   2056.59   1865.93
   2615.41   2257.38   2182.96   2104.01   2240.44   2173.52   2132.08   2059.86   2056.59   1866.00
   2615.41   2257.38   2183.00   2104.01   2240.44   2173.52   2132.08   2059.87   2056.59   1866.07
   2615.41   2257.38   2183.04   2104.01   2240.44   2173.52   2132.07   2059.87   2056.59   1866.14
   2615.41   2257.38   2183.08   2104.01   2240.44   2173.52   2132.07   2059.87   2056.60   1866.20
   2615.41   2257.39   2183.15   2104.01   2240.44   2173.52   2132.07   2059.87   2056.60   1866.36
   2615.42   2257.40   2183.19   2104.01   2240.44   2173.52   2132.07   2059.87   2056.60   1866.53
   2615.44   2257.41   2183.21   2104.01   2240.44   2173.52   2132.06   2059.88   2056.60   1866.71
   2615.46   2257.43   2183.28   2104.01   2240.44   2173.52   2132.06   2059.88   2056.60   1866.87
   2615.49   2257.46   2183.35   2104.01   2240.44   2173.52   2132.06   2059.88   2056.60   1867.05
   2615.53   2257.50   2183.40   2104.01   2240.44   2173.52   2132.05   2059.88   2056.60   1867.23
   2615.57   2257.54   2183.44   2104.01   2240.44   2192.51   2132.05   2059.88   2056.60   1867.41
   2615.62   2257.58   2183.50   2104.01   2240.44   2233.36   2132.05   2059.88   2056.60   1867.51
   2615.65   2257.62   2183.56   2104.02   2240.44   2233.36   2132.04   2059.89   2056.60   1867.65
   2615.68   2257.65   2183.59   2104.02   2240.44   2233.36   2132.04   2059.89   2056.61   1867.79
   2615.71   2257.67   2183.60   2104.02   2240.44   2233.36   2132.04   2059.89   2056.61   1867.92
   2615.72   2257.69   2183.60   2104.02   2240.44   2233.36   2132.04   2059.89   2056.61   1868.06
   2615.74   2257.70   2183.61   2104.02   2240.44   2233.36   2132.03   2059.89   2056.61   1868.20
   2615.75   2257.71   2183.62   2104.02   2240.44   2233.36   2132.03   2059.89   2056.61   1868.33
   2615.75   2257.72   2183.63   2104.02   2240.44   2233.36   2132.03   2059.90   2056.61   1868.47
   2615.76   2257.72   2183.63   2104.02   2240.44   2233.36   2132.02   2059.90   2056.61   1868.60
   2615.76   2257.72   2183.64   2104.02   2240.44   2233.36   2132.02   2059.90   2056.61   1868.74
   2615.76   2257.73   2183.64   2104.02   2240.44   2233.36   2132.02   2059.90   2056.61   1868.88
   2615.76   2257.73   2183.65   2104.02   2240.44   2233.36   2132.02   2059.90   2056.62   1869.01
   2615.77   2257.73   2183.65   2104.02   2240.44   2233.36   2132.01   2059.90   2056.62   1869.15
   2615.77   2257.73   2183.66   2104.02   2240.44   2233.36   2132.01   2059.91   2056.62   1869.28
   2615.77   2257.73   2183.67   2104.02   2240.44   2233.36   2132.01   2059.91   2056.62   1869.42
   2615.77   2257.73   2183.68   2104.02   2240.44   2233.36   2132.00   2059.91   2056.62   1869.56
   2615.77   2257.73   2183.69   2104.02   2240.44   2233.36   2132.00   2059.91   2056.62   1869.69
   2615.77   2257.73   2183.71   2104.02   2240.44   2233.36   2132.00   2059.91   2056.62   1869.83
   2615.77   2257.73   2183.72   2104.02   2240.44   2233.36   2132.00   2059.91   2056.62   1870.31
   2615.77   2257.73   2183.73   2104.02   2240.44   2233.36   2131.99   2059.92   2056.62   1871.30
   2615.77   2257.73   2183.74   2104.02   2240.44   2233.36   2131.99   2059.92   2056.62   1871.30
   2615.77   2257.73   2183.76   2104.02   2240.44   2233.36   2131.99   2059.92   2056.63   1871.30
   2615.77   2257.73   2183.78   2104.02   2240.44   2233.36   2131.98   2059.92   2056.63   1870.33
   2615.77   2257.74   2183.83   2104.02   2240.44   2233.36   2131.98   2059.92   2056.63   1871.24
   2615.78   2257.75   2183.89   2104.02   2240.44   2233.36   2131.98   2059.92   2056.63   1871.31
   2615.80   2257.76   2183.91   2104.02   2240.44   2233.36   2131.97   2059.93   2056.63   1871.31
   2615.83   2257.79   2183.93   2104.02   2240.44   2233.36   2131.97   2059.93   2056.63   1871.31
   2615.85   2257.81   2183.94   2104.02   2240.44   2233.36   2131.97   2059.93   2056.63   1871.31
   2615.87   2257.83   2183.96   2104.03   2240.44   2233.36   2131.97   2059.93   2056.63   1871.31
   2615.89   2257.85   2183.97   2104.03   2240.44   2233.36   2131.96   2059.93   2056.63   1871.31
   2615.90   2257.86   2183.99   2104.03   2240.44   2233.36   2131.96   2059.93   2056.64   1871.31
   2615.91   2257.87   2184.00   2104.03   2240.44   2233.36   2131.96   2059.94   2056.64   1871.31
   2615.92   2257.88   2184.02   2104.03   2240.44   2233.36   2131.95   2059.94   2056.64   1871.31
   2615.93   2257.88   2184.03   2104.03   2240.44   2233.36   2131.95   2059.94   2056.64   1871.31
   2615.93   2257.89   2184.05   2104.03   2240.44   2233.36   2131.95   2059.94   2056.64   1871.31
   2615.93   2257.89   2184.06   2104.03   2240.44   2233.36   2131.95   2059.94   2056.64   1871.31
   2615.93   2257.89   2184.07   2104.03   2240.45   2233.36   2131.94   2059.95   2056.64   1871.31
   2615.93   2257.89   2184.09   2104.03   2240.45   2233.36   2131.94   2059.95   2056.64   1871.31
   2615.94   2257.89   2184.10   2104.03   2240.45   2233.36   2131.94   2059.95   2056.64   1871.31
   2615.94   2257.89   2184.12   2104.03   2240.45   2233.36   2131.93   2059.95   2056.64   1871.31