 Head values for selected MODFLOW cells
   2615.32   2257.27   2172.56   2103.93   2240.43   2173.52   2132.82   2059.39   2056.29   1858.02
   2615.32   2257.27   2172.56   2103.93   2240.43   2173.52   2132.82   2059.40   2056.30   1858.03
   2615.32   2257.27   2172.56   2103.93   2240.43   2173.52   2132.82   2059.40   2056.30   1858.03
   2615.32   2257.27   2172.56   2103.93   2240.43   2173.52   2132.81   2059.40   2056.30   1858.03
   2615.32   2257.27   2172.56   2103.93   2240.43   2173.52   2132.81   2059.40   2056.30   1858.03
   2615.32   2257.27   2172.56   2103.93   2240.43   2173.52   2132.81   2059.40   2056.30   1858.04
   2615.32   2257.27   2172.56   2103.93   2240.43   2173.52   2132.80   2059.41   2056.30   1858.04
   2615.32   2257.27   2172.56   2103.93   2240.43   2173.52   2132.80   2059.41   2056.30   1858.04
   2615.32   2257.27   2172.56   2103.93   2240.43   2173.52   2132.80   2059.41   2056.31   1858.05
   2615.32   2257.27   2172.56   2103.93   2240.43   2173.52   2132.79   2059.41   2056.31   1858.05
   2615.32   2257.27   2172.56   2103.93   2240.43   2173.52   2132.79   2059.41   2056.31   1858.06
   2615.32   2257.27   2172.56   2103.93   2240.43   2173.52   2132.79   2059.42   2056.31   1858.06
   2615.32   2257.27   2172.56   2103.93   2240.43   2173.52   2132.78   2059.42   2056.31   1858.07
   2615.32   2257.27   2172.56   2103.93   2240.43   2173.52   2132.78   2059.42   2056.31   1858.07
   2615.32   2257.27   2172.56   2103.93   2240.43   2173.52   2132.78   2059.42   2056.31   1858.08
   2615.32   2257.27   2172.56   2103.93   2240.43   2173.52   2132.78   2059.42   2056.31   1858.09
   2615.32   2257.27   2172.56   2103.94   2240.43   2173.52   2132.77   2059.43   2056.32   1858.09
   2615.32   2257.27   2172.56   2103.94   2240.43   2173.52   2132.77   2059.43   2056.32   1858.10
   2615.32   2257.27   2172.56   2103.94   2240.43   2173.52   2132.77   2059.43   2056.32   1858.10
   2615.32   2257.27   2172.56   2103.94   2240.43   2173.52   2132.76   2059.43   2056.32   1858.11
   2615.32   2257.27   2172.56   2103.94   2240.43   2173.52   2132.76   2059.44   2056.32   1858.12
   2615.32   2257.27   2172.56   2103.94   2240.43   2173.52   2132.76   2059.44   2056.32   1858.13
   2615.32   2257.27   2172.56   2103.94   2240.43   2173.52   2132.75   2059.44   2056.32   1858.13
   2615.32   2257.27   2172.56   2103.94   2240.43   2173.52   2132.75   2059.44   2056.33   1858.14
   2615.32   2257.27   2172.56   2103.94   2240.43   2173.52   2132.75   2059.44   2056.33   1858.15
   2615.32   2257.27   2172.56   2103.94   2240.43   2173.52   2132.74   2059.45   2056.33   1858.16
   2615.32   2257.27   2172.56   2103.94   2240.43   2173.52   2132.74   2059.45   2056.33   1858.17
   2615.32   2257.27   2172.56   2103.94   2240.43   2173.52   2132.74   2059.45   2056.33   1858.17
   2615.32   2257.27   2172.56   2103.94   2240.43   2173.52   2132.74   2059.45   2056.33   1858.18
   2615.32   2257.27   2172.56   2103.94   2240.43   2173.52   2132.73   2059.45   2056.33   1858.19
   2615.32   2257.27   2172.56   2103.94   2240.43   2173.52   2132.73   2059.46   2056.33   1858.20
   2615.32   2257.27   2172.56   2103.94   2240.43   2173.52   2132.73   2059.46   2056.34   1858.20
   2615.32   2257.27   2172.56   2103.94   2240.43   2173.52   2132.72   2059.46   2056.34   1858.21
   2615.32   2257.27   2172.56   2103.94   2240.43   2173.52   2132.72   2059.46   2056.34   1858.22
   2615.32   2257.27   2172.56   2103.94   2240.43   2173.52   2132.72   2059.46   2056.34   1858.23
   2615.32   2257.27   2172.56   2103.94   2240.43   2173.52   2132.71   2059.47   2056.34   1858.23
   2615.32   2257.27   2172.56   2103.94   2240.43   2173.52   2132.71   2059.47   2056.34   1858.24
   2615.32   2257.27   2172.56   2103.94   2240.43   2173.52   2132.71   2059.47   2056.34   1858.25
   2615.32   2257.27   2172.56   2103.94   2240.43   2173.52   2132.70   2059.47   2056.35   1858.26
   2615.32   2257.28   2172.56   2103.94   2240.43   2173.52   2132.70   2059.47   2056.35   1858.27
   2615.32   2257.28   2172.56   2103.94   2240.43   2173.52   2132.70   2059.48   2056.35   1858.27
   2615.32   2257.28   2172.56   2103.94   2240.43   2173.52   2132.70   2059.48   2056.35   1858.28
   2615.32   2257.28   2172.56   2103.94   2240.43   2173.52   2132.69   2059.48   2056.35   1858.29
   2615.32   2257.28   2172.56   2103.94   2240.43   2173.52   2132.69   2059.48   2056.35   1858.30
   2615.32   2257.28   2172.56   2103.94   2240.43   2173.52   2132.69   2059.48   2056.35   1858.30
   2615.32   2257.28   2172.56   2103.94   2240.43   2173.52   2132.68   2059.49   2056.35   1858.31
   2615.32   2257.28   2172.56   2103.94   2240.43   2173.52   2132.68   2059.49   2056.36   1858.32
   2615.32   2257.28   2172.56   2103.94   2240.43   2173.52   2132.68   2059.49   2056.36   1858.33
   2615.32   2257.28   2172.56   2103.95   2240.43   2173.52   2132.67   2059.49   2056.36   1858.34
   2615.32   2257.28   2172.56   2103.95   2240.43   2173.52   2132.67   2059.49   2056.36   1858.34
   2615.32   2257.28   2172.56   2103.95   2240.43   2173.52   2132.67   2059.50   2056.36   1858.35
   2615.32   2257.28   2172.56   2103.95   2240.43   2173.52   2132.66   2059.50   2056.36   1858.36
   2615.32   2257.28   2172.56   2103.95   2240.43   2173.52   2132.66   2059.50   2056.36   1858.37
   2615.32   2257.28   2172.56   2103.95   2240.43   2173.52   2132.66   2059.50   2056.36   1858.37
   2615.32   2257.28   2172.56   2103.95   2240.43   2173.52   2132.66   2059.50   2056.37   1858.38
   2615.32   2257.28   2172.56   2103.95   2240.43   2173.52   2132.65   2059.51   2056.37   1858.39
   2615.32   2257.28   2172.56   2103.95   2240.43   2173.52   2132.65   2059.51   2056.37   1858.40
   2615.32   2257.28   2172.56   2103.95   2240.43   2173.52   2132.65   2059.51   2056.37   1858.40
   2615.32   2257.28   2172.56   2103.95   2240.43   2173.52   2132.64   2059.51   2056.37   1858.41
   2615.32   2257.28   2172.56   2103.95   2240.43   2173.52   2132.64   2059.51   2056.37   1858.42
   2615.32   2257.28   2172.56   2103.95   2240.43   2173.52   2132.64   2059.52   2056.37   1858.43
   2615.32   2257.28   2172.56   2103.95   2240.43   2173.52   2132.63   2059.52   2056.38   1858.44
   2615.32   2257.28   2172.56   2103.95   2240.43   2173.52   2132.63   2059.52   2056.38   1858.44
   2615.32   2257.28   2172.56   2103.95   2240.43   2173.52   2132.63   2059.52   2056.38   1858.45
   2615.32   2257.28   2172.56   2103.95   2240.43   2173.52   2132.62   2059.52   2056.38   1858.46
   2615.32   2257.28   2172.56   2103.95   2240.43   2173.52   2132.62   2059.53   2056.38   1858.47
   2615.32   2257.28   2172.56   2103.95   2240.43   2173.52   2132.62   2059.53   2056.38   1858.47
   2615.32   2257.28   2172.56   2103.95   2240.43   2173.52   2132.62   2059.53   2056.38   1858.48
   2615.32   2257.28   2172.56   2103.95   2240.43   2173.52   2132.61   2059.53   2056.38   1858.49
   2615.32   2257.28   2172.56   2103.95   2240.43   2173.52   2132.61   2059.54   2056.39   1858.50
   2615.32   2257.28   2172.56   2103.95   2240.43   2173.52   2132.61   2059.54   2056.39   1858.50
   2615.32   2257.28   2172.56   2103.95   2240.43   2173.52   2132.60   2059.54   2056.39   1858.52
   2615.32   2257.28   2172.56   2103.95   2240.43   2173.52   2132.60   2059.54   2056.39   1858.53
   2615.32   2257.28   2172.56   2103.95   2240.43   2173.52   2132.60   2059.54   2056.39   1858.54
   2615.32   2257.28   2172.56   2103.95   2240.43   2173.52   2132.59   2059.54   2056.39   1858.54
   2615.32   2257.28   2172.56   2103.95   2240.43   2173.52   2132.59   2059.55   2056.39   1858.55
   2615.32   2257.28   2172.56   2103.95   2240.43   2173.52   2132.59   2059.55   2056.39   1858.56
   2615.32   2257.28   2172.56   2103.95   2240.43   2173.52   2132.58   2059.55   2056.40   1858.57
   2615.32   2257.28   2172.56   2103.95   2240.43   2173.52   2132.58   2059.55   2056.40   1858.58
   2615.32   2257.28   2172.56   2103.95   2240.43   2173.52   2132.58   2059.55   2056.40   1858.59
   2615.32   2257.28   2172.56   2103.96   2240.43   2173.52   2132.58   2059.56   2056.40   1858.62
   2615.32   2257.28   2172.56   2103.96   2240.43   2173.52   2132.57   2059.56   2056.40   1858.62
   2615.32   2257.28   2172.56   2103.96   2240.43   2173.52   2132.57   2059.56   2056.40   1858.63
   2615.32   2257.28   2172.56   2103.96   2240.43   2173.52   2132.57   2059.56   2056.40   1858.64
   2615.32   2257.28   2172.56   2103.96   2240.43   2173.52   2132.56   2059.56   2056.40   1858.65
   2615.32   2257.28   2172.56   2103.96   2240.43   2173.52   2132.56   2059.57   2056.41   1858.66
   2615.32   2257.28   2172.56   2103.96   2240.43   2173.52   2132.56   2059.57   2056.41   1858.68
   2615.32   2257.28   2172.56   2103.96   2240.43   2173.52   2132.55   2059.57   2056.41   1858.69
   2615.32   2257.28   2172.56   2103.96   2240.43   2173.52   2132.55   2059.57   2056.41   1858.69
   2615.32   2257.28   2172.56   2103.96   2240.43   2173.52   2132.55   2059.57   2056.41   1858.74
   2615.32   2257.28   2177.23   2103.96   2240.43   2173.52   2132.54   2059.58   2056.41   1858.77
   2615.32   2257.29   2177.26   2103.96   2240.43   2173.52   2132.54   2059.58   2056.41   1858.84
   2615.33   2257.29   2177.29   2103.96   2240.43   2173.52   2132.54   2059.58   2056.41   1858.86
   2615.34   2257.30   2177.33   2103.96   2240.43   2173.52   2132.54   2059.58   2056.42   1858.90
   2615.34   2257.30   2177.33   2103.96   2240.43   2173.52   2132.53   2059.58   2056.42   1858.91
   2615.34   2257.30   2177.33   2103.96   2240.43   2173.52   2132.53   2059.59   2056.42   1858.92
   2615.34   2257.30   2177.34   2103.96   2240.43   2173.52   2132.53   2059.59   2056.42   1858.94
   2615.34   2257.30   2177.34   2103.96   2240.43   2173.52   2132.52   2059.59   2056.42   1858.95
   2615.34   2257.31   2177.34   2103.96   2240.43   2173.52   2132.52   2059.59   2056.42   1858.96
   2615.34   2257.31   2177.34   2103.96   2240.43   2173.52   2132.52   2059.59   2056.42   1858.97
   2615.34   2257.31   2177.34   2103.96   2240.43   2173.52   2132.51   2059.60   2056.42   1858.98
   2615.34   2257.31   2177.34   2103.96   2240.43   2173.52   2132.51   2059.60   2056.43   1858.98
   2615.34   2257.31   2177.34   2103.96   2240.43   2173.52   2132.51   2059.60   2056.43   1858.99
   2615.34   2257.31   2177.41   2103.96   2240.43   2173.52   2132.51   2059.60   2056.43   1859.07
   2615.34   2257.31   2177.48   2103.96   2240.43   2173.52   2132.50   2059.60   2056.43   1859.10
   2615.34   2257.31   2177.55   2103.96   2240.43   2173.52   2132.50   2059.61   2056.43   1859.14
   2615.34   2257.31   2177.63   2103.96   2240.43   2173.52   2132.50   2059.61   2056.43   1859.16
   2615.34   2257.31   2177.70   2103.96   2240.43   2173.52   2132.49   2059.61   2056.43   1859.17
   2615.34   2257.31   2177.77   2103.96   2240.43   2173.52   2132.49   2059.61   2056.43   1859.18
   2615.34   2257.31   2177.84   2103.96   2240.44   2173.52   2132.49   2059.61   2056.44   1859.19
   2615.34   2257.31   2177.91   2103.96   2240.44   2173.52   2132.48   2059.62   2056.44   1859.20
   2615.34   2257.31   2177.98   2103.97   2240.44   2173.52   2132.48   2059.62   2056.44   1859.21
   2615.34   2257.31   2178.05   2103.97   2240.44   2173.52   2132.48   2059.62   2056.44   1859.22
   2615.34   2257.31   2178.12   2103.97   2240.44   2173.52   2132.47   2059.62   2056.44   1859.30
   2615.34   2257.31   2178.13   2103.97   2240.44   2173.52   2132.47   2059.62   2056.44   1859.34
   2615.34   2257.31   2178.13   2103.97   2240.44   2173.52   2132.47   2059.63   2056.44   1859.37
   2615.34   2257.31   2178.13   2103.97   2240.44   2173.52   2132.47   2059.63   2056.44   1859.39
   2615.34   2257.31   2178.13   2103.97   2240.44   2173.52   2132.46   2059.63   2056.45   1859.40
   2615.34   2257.31   2178.14   2103.97   2240.44   2173.52   2132.46   2059.63   2056.45   1859.41
   2615.34   2257.31   2178.14   2103.97   2240.44   2173.52   2132.46   2059.63   2056.45   1859.42
   2615.34   2257.31   2178.15   2103.97   2240.44   2173.52   2132.45   2059.64   2056.45   1859.43
   2615.34   2257.31   2178.15   2103.97   2240.44   2173.52   2132.45   2059.64   2056.45   1859.44
   2615.34   2257.31   2178.16   2103.97   2240.44   2173.52   2132.45   2059.64   2056.45   1859.45
   2615.34   2257.31   2178.17   2103.97   2240.44   2173.52   2132.44   2059.64   2056.45   1859.46
   2615.34   2257.31   2178.17   2103.97   2240.44   2173.52   2132.44   2059.64   2056.45   1859.46
   2615.34   2257.31   2178.18   2103.97   2240.44   2173.52   2132.44   2059.64   2056.46   1859.48
   2615.34   2257.31   2178.19   2103.97   2240.44   2173.52   2132.44   2059.65   2056.46   1859.49
   2615.34   2257.31   2178.19   2103.97   2240.44   2173.52   2132.43   2059.65   2056.46   1859.50
   2615.34   2257.31   2178.19   2103.97   2240.44   2173.52   2132.43   2059.65   2056.46   1859.50
   2615.34   2257.31   2178.19   2103.97   2240.44   2173.52   2132.43   2059.65   2056.46   1859.51
   2615.34   2257.31   2178.19   2103.97   2240.44   2173.52   2132.42   2059.65   2056.46   1859.52
   2615.34   2257.31   2178.19   2103.97   2240.44   2173.52   2132.42   2059.66   2056.46   1859.53
   2615.34   2257.31   2178.19   2103.97   2240.44   2173.52   2132.42   2059.66   2056.46   1859.54
   2615.34   2257.31   2178.19   2103.97   2240.44   2173.52   2132.41   2059.66   2056.46   1859.62
   2615.34   2257.31   2178.21   2103.97   2240.44   2173.52   2132.41   2059.66   2056.47   1859.71
   2615.34   2257.31   2178.23   2103.97   2240.44   2173.52   2132.41   2059.66   2056.47   1859.79
   2615.34   2257.31   2178.25   2103.97   2240.44   2173.52   2132.41   2059.67   2056.47   1859.94
   2615.34   2257.31   2178.27   2103.97   2240.44   2173.52   2132.40   2059.67   2056.47   1859.99
   2615.34   2257.31   2178.29   2103.97   2240.44   2173.52   2132.40   2059.67   2056.47   1860.02
   2615.34   2257.31   2178.32   2103.97   2240.44   2173.52   2132.40   2059.67   2056.47   1860.04
   2615.34   2257.31   2178.34   2103.97   2240.44   2173.52   2132.39   2059.67   2056.47   1860.05
   2615.34   2257.31   2178.36   2103.97   2240.44   2173.52   2132.39   2059.68   2056.47   1860.06
   2615.34   2257.31   2178.38   2103.98   2240.44   2173.52   2132.39   2059.68   2056.48   1860.07
   2615.34   2257.31   2178.40   2103.98   2240.44   2173.52   2132.38   2059.68   2056.48   1860.08
   2615.34   2257.31   2178.42   2103.98   2240.44   2173.52   2132.38   2059.68   2056.48   1860.09
   2615.34   2257.31   2178.43   2103.98   2240.44   2173.52   2132.38   2059.68   2056.48   1860.10
   2615.34   2257.31   2178.44   2103.98   2240.44   2173.52   2132.38   2059.68   2056.48   1860.11
   2615.34   2257.31   2178.44   2103.98   2240.44   2173.52   2132.37   2059.69   2056.48   1860.14
   2615.34   2257.31   2178.45   2103.98   2240.44   2173.52   2132.37   2059.69   2056.48   1860.23
   2615.34   2257.31   2178.45   2103.98   2240.44   2173.52   2132.37   2059.69   2056.48   1860.31
   2615.34   2257.31   2178.45   2103.98   2240.44   2173.52   2132.36   2059.69   2056.48   1860.33
   2615.34   2257.31   2178.45   2103.98   2240.44   2173.52   2132.36   2059.69   2056.49   1860.35
   2615.34   2257.31   2178.45   2103.98   2240.44   2173.52   2132.36   2059.70   2056.49   1860.37
   2615.34   2257.31   2178.45   2103.98   2240.44   2173.52   2132.35   2059.70   2056.49   1860.39
   2615.34   2257.31   2178.45   2103.98   2240.44   2173.52   2132.35   2059.70   2056.49   1860.41
   2615.34   2257.31   2178.45   2103.98   2240.44   2173.52   2132.35   2059.70   2056.49   1860.43
   2615.34   2257.31   2178.46   2103.98   2240.44   2173.52   2132.34   2059.70   2056.49   1860.45
   2615.34   2257.31   2178.46   2103.98   2240.44   2173.52   2132.34   2059.71   2056.49   1860.47
   2615.34   2257.31   2178.46   2103.98   2240.44   2173.52   2132.34   2059.71   2056.49   1860.49
   2615.34   2257.31   2178.46   2103.98   2240.44   2173.52   2132.34   2059.71   2056.50   1860.51
   2615.34   2257.31   2178.46   2103.98   2240.44   2173.52   2132.33   2059.71   2056.50   1860.54
   2615.34   2257.31   2178.46   2103.98   2240.44   2173.52   2132.33   2059.71   2056.50   1860.57
   2615.34   2257.31   2178.46   2103.98   2240.44   2173.52   2132.33   2059.71   2056.50   1860.60
   2615.34   2257.31   2178.46   2103.98   2240.44   2173.52   2132.32   2059.72   2056.50   1860.63
   2615.34   2257.31   2178.46   2103.98   2240.44   2173.52   2132.32   2059.72   2056.50   1860.66
   2615.34   2257.31   2178.46   2103.98   2240.44   2173.52   2132.32   2059.72   2056.50   1860.69
   2615.34   2257.31   2178.46   2103.98   2240.44   2173.52   2132.31   2059.72   2056.50   1860.74
   2615.34   2257.31   2178.46   2103.98   2240.44   2173.52   2132.31   2059.72   2056.50   1860.78
   2615.34   2257.31   2178.46   2103.98   2240.44   2173.52   2132.31   2059.73   2056.51   1860.82
   2615.34   2257.31   2178.46   2103.98   2240.44   2173.52   2132.31   2059.73   2056.51   1860.87
   2615.34   2257.31   2178.46   2103.98   2240.44   2173.52   2132.30   2059.73   2056.51   1860.91
   2615.34   2257.31   2178.47   2103.99   2240.44   2173.52   2132.30   2059.73   2056.51   1861.01
   2615.34   2257.31   2178.47   2103.99   2240.44   2173.52   2132.30   2059.73   2056.51   1861.07
   2615.34   2257.31   2178.47   2103.99   2240.44   2173.52   2132.29   2059.74   2056.51   1861.11
   2615.34   2257.31   2178.47   2103.99   2240.44   2173.52   2132.29   2059.74   2056.51   1861.17
   2615.34   2257.31   2178.47   2103.99   2240.44   2173.52   2132.29   2059.74   2056.51   1861.21
   2615.34   2257.31   2178.47   2103.99   2240.44   2173.52   2132.28   2059.74   2056.52   1861.24
   2615.34   2257.31   2178.47   2103.99   2240.44   2173.52   2132.28   2059.74   2056.52   1861.28
   2615.34   2257.31   2178.47   2103.99   2240.44   2173.52   2132.28   2059.74   2056.52   1861.32
   2615.34   2257.31   2178.47   2103.99   2240.44   2173.52   2132.28   2059.75   2056.52   1861.35
   2615.34   2257.31   2178.47   2103.99   2240.44   2173.52   2132.27   2059.75   2056.52   1861.38
   2615.34   2257.31   2178.47   2103.99   2240.44   2173.52   2132.27   2059.75   2056.52   1861.44
   2615.34   2257.31   2178.47   2103.99   2240.44   2173.52   2132.27   2059.75   2056.52   1861.49
   2615.34   2257.31   2178.47   2103.99   2240.44   2173.52   2132.26   2059.75   2056.52   1861.63
   2615.34   2257.31   2178.47   2103.99   2240.44   2173.52   2132.26   2059.76   2056.52   1861.67
   2615.34   2257.31   2178.47   2103.99   2240.44   2173.52   2132.26   2059.76   2056.53   1861.76
   2615.34   2257.31   2178.48   2103.99   2240.44   2173.52   2132.26   2059.76   2056.53   1861.84
   2615.34   2257.31   2178.48   2103.99   2240.44   2173.52   2132.25   2059.76   2056.53   1861.87
   2615.34   2257.31   2178.48   2103.99   2240.44   2173.52   2132.25   2059.76   2056.53   1861.96
   2615.34   2257.31   2178.48   2103.99   2240.44   2173.52   2132.25   2059.76   2056.53   1862.05
   2615.34   2257.31   2178.48   2103.99   2240.44   2173.52   2132.24   2059.77   2056.53   1862.09
   2615.34   2257.31   2178.48   2103.99   2240.44   2173.52   2132.24   2059.77   2056.53   1862.14
   2615.34   2257.31   2178.48   2103.99   2240.44   2173.52   2132.24   2059.77   2056.53   1862.19
   2615.34   2257.31   2178.48   2103.99   2240.44   2173.52   2132.23   2059.77   2056.53   1862.23
   2615.34   2257.31   2178.48   2103.99   2240.44   2173.52   2132.23   2059.77   2056.54   1862.28
   2615.34   2257.31   2178.48   2103.99   2240.44   2173.52   2132.23   2059.78   2056.54   1862.33
   2615.34   2257.31   2178.48   2103.99   2240.44   2173.52   2132.23   2059.78   2056.54   1862.38
   2615.34   2257.31   2178.48   2103.99   2240.44   2173.52   2132.22   2059.78   2056.54   1862.43
   2615.34   2257.31   2178.48   2103.99   2240.44   2173.52   2132.22   2059.78   2056.54   1862.57
   2615.34   2257.31   2178.52   2103.99   2240.44   2173.52   2132.22   2059.78   2056.54   1862.68
   2615.34   2257.31   2178.59   2104.00   2240.44   2173.52   2132.21   2059.78   2056.54   1862.79
   2615.34   2257.31   2178.59   2104.00   2240.44   2173.52   2132.21   2059.79   2056.54   1862.87
   2615.34   2257.31   2178.59   2104.00   2240.44   2173.52   2132.21   2059.79   2056.54   1862.97
   2615.34   2257.31   2178.59   2104.00   2240.44   2173.52   2132.20   2059.79   2056.55   1863.07
   2615.34   2257.31   2178.64   2104.00   2240.44   2173.52   2132.20   2059.79   2056.55   1863.19
   2615.34   2257.31   2178.65   2104.00   2240.44   2173.52   2132.20   2059.79   2056.55   1863.31
   2615.34   2257.31   2178.65   2104.00   2240.44   2173.52   2132.20   2059.80   2056.55   1863.39
   2615.34   2257.31   2178.65   2104.00   2240.44   2173.52   2132.19   2059.80   2056.55   1863.44
   2615.34   2257.32   2178.65   2104.00   2240.44   2173.52   2132.19   2059.80   2056.55   1863.49
   2615.34   2257.32   2178.65   2104.00   2240.44   2173.52   2132.19   2059.80   2056.55   1863.58
   2615.34   2257.32   2178.66   2104.00   2240.44   2173.52   2132.18   2059.80   2056.55   1863.63
   2615.34   2257.32   2178.66   2104.00   2240.44   2173.52   2132.18   2059.80   2056.55   1863.68
   2615.34   2257.32   2178.66   2104.00   2240.44   2173.52   2132.18   2059.81   2056.56   1863.74
   2615.34   2257.32   2178.66   2104.00   2240.44   2173.52   2132.17   2059.81   2056.56   1863.88
   2615.34   2257.32   2178.66   2104.00   2240.44   2173.52   2132.17   2059.81   2056.56   1864.00
   2615.34   2257.32   2178.66   2104.00   2240.44   2173.52   2132.17   2059.81   2056.56   1864.08
   2615.34   2257.32   2178.67   2104.00   2240.44   2173.52   2132.17   2059.81   2056.56   1864.22
   2615.34   2257.32   2178.74   2104.00   2240.44   2173.52   2132.16   2059.82   2056.56   1864.37
   2615.34   2257.32   2178.77   2104.00   2240.44   2173.52   2132.16   2059.82   2056.56   1864.48
   2615.34   2257.32   2178.77   2104.00   2240.44   2173.52   2132.16   2059.82   2056.56   1864.57
   2615.34   2257.32   2178.77   2104.00   2240.44   2173.52   2132.15   2059.82   2056.56   1864.66
   2615.34   2257.32   2178.78   2104.00   2240.44   2173.52   2132.15   2059.82   2056.57   1864.71
   2615.34   2257.32   2178.78   2104.00   2240.44   2173.52   2132.15   2059.82   2056.57   1864.76
   2615.34   2257.32   2178.78   2104.00   2240.44   2173.52   2132.15   2059.83   2056.57   1864.81
   2615.34   2257.32   2178.78   2104.00   2240.44   2173.52   2132.14   2059.83   2056.57   1864.87
   2615.34   2257.32   2178.78   2104.00   2240.44   2173.52   2132.14   2059.83   2056.57   1864.92
   2615.34   2257.32   2178.78   2104.00   2240.44   2173.52   2132.14   2059.83   2056.57   1864.98
   2615.34   2257.32   2178.79   2104.00   2240.44   2173.52   2132.13   2059.83   2056.57   1865.05
   2615.34   2257.32   2178.79   2104.00   2240.44   2173.52   2132.13   2059.83   2056.57   1865.11
   2615.34   2257.32   2178.79   2104.01   2240.44   2173.52   2132.13   2059.84   2056.57   1865.18
   2615.34   2257.32   2178.79   2104.01   2240.44   2173.52   2132.12   2059.84   2056.58   1865.33
   2615.34   2257.32   2178.79   2104.01   2240.44   2173.52   2132.12   2059.84   2056.58   1865.43
   2615.34   2257.32   2178.79   2104.01   2240.44   2173.52   2132.12   2059.84   2056.58   1865.56
   2615.34   2257.32   2178.79   2104.01   2240.44   2173.52   2132.12   2059.84   2056.58   1865.65
   2615.34   2257.32   2178.79   2104.01   2240.44   2173.52   2132.11   2059.85   2056.58   1865.71
   2615.34   2257.32   2178.79   2104.01   2240.44   2173.52   2132.11   2059.85   2056.58   1865.82
   2615.34   2257.32   2178.79   2104.01   2240.44   2173.52   2132.11   2059.85   2056.58   1865.88
   2615.34   2257.32   2178.79   2104.01   2240.44   2173.52   2132.10   2059.85   2056.58   1865.95
   2615.34   2257.32   2178.79   2104.01   2240.44   2173.52   2132.10   2059.85   2056.58   1866.02
   2615.34   2257.32   2178.79   2104.01   2240.44   2173.52   2132.10   2059.85   2056.59   1866.08
   2615.34   2257.32   2178.82   2104.01   2240.44   2173.52   2132.09   2059.86   2056.59   1866.23
   2615.34   2257.32   2178.88   2104.01   2240.44   2173.52   2132.09   2059.86   2056.59   1866.36
   2615.34   2257.32   2178.91   2104.01   2240.44   2173.52   2132.09   2059.86   2056.59   1866.42
   2615.34   2257.32   2178.91   2104.01   2240.44   2173.52   2132.09   2059.86   2056.59   1866.47
   2615.34   2257.32   2178.91   2104.01   2240.44   2173.52   2132.08   2059.86   2056.59   1866.56
   2615.34   2257.32   2178.91   2104.01   2240.44   2173.52   2132.08   2059.86   2056.59   1866.62
   2615.34   2257.32   2178.91   2104.01   2240.44   2173.52   2132.08   2059.87   2056.59   1866.76
   2615.34   2257.32   2178.91   2104.01   2240.44   2173.52   2132.07   2059.87   2056.59   1866.86
   2615.34   2257.32   2178.92   2104.01   2240.44   2173.52   2132.07   2059.87   2056.60   1866.95
   2615.35   2257.32   2178.99   2104.01   2240.44   2173.52   2132.07   2059.87   2056.60   1867.13
   2615.35   2257.33   2179.04   2104.01   2240.44   2173.52   2132.07   2059.87   2056.60   1867.31
   2615.36   2257.34   2179.07   2104.01   2240.44   2173.52   2132.06   2059.88   2056.60   1867.43
   2615.37   2257.35   2179.14   2104.01   2240.44   2173.52   2132.06   2059.88   2056.60   1867.61
   2615.39   2257.36   2179.22   2104.01   2240.44   2173.52   2132.06   2059.88   2056.60   1867.79
   2615.41   2257.38   2179.27   2104.01   2240.44   2173.52   2132.05   2059.88   2056.60   1867.97
   2615.42   2257.40   2179.29   2104.01   2240.44   2192.50   2132.05   2059.88   2056.60   1868.12
   2615.43   2257.41   2179.35   2104.01   2240.44   2233.36   2132.05   2059.88   2056.60   1868.28
   2615.44   2257.41   2179.40   2104.02   2240.44   2233.36   2132.04   2059.89   2056.60   1868.45
   2615.44   2257.42   2179.41   2104.02   2240.44   2233.36   2132.04   2059.89   2056.61   1868.58
   2615.44   2257.42   2179.42   2104.02   2240.44   2233.36   2132.04   2059.89   2056.61   1868.67
   2615.44   2257.42   2179.42   2104.02   2240.44   2233.36   2132.04   2059.89   2056.61   1868.72
   2615.44   2257.42   2179.42   2104.02   2240.44   2233.36   2132.03   2059.89   2056.61   1868.77
   2615.44   2257.42   2179.42   2104.02   2240.44   2233.36   2132.03   2059.89   2056.61   1868.83
   2615.44   2257.42   2179.42   2104.02   2240.44   2233.36   2132.03   2059.90   2056.61   1868.91
   2615.44   2257.42   2179.42   2104.02   2240.44   2233.36   2132.02   2059.90   2056.61   1868.97
   2615.44   2257.42   2179.42   2104.02   2240.44   2233.36   2132.02   2059.90   2056.61   1869.01
   2615.44   2257.42   2179.42   2104.02   2240.44   2233.36   2132.02   2059.90   2056.61   1869.07
   2615.44   2257.42   2179.42   2104.02   2240.44   2233.36   2132.02   2059.90   2056.62   1869.11
   2615.44   2257.42   2179.43   2104.02   2240.44   2233.36   2132.01   2059.90   2056.62   1869.15
   2615.44   2257.42   2179.43   2104.02   2240.44   2233.36   2132.01   2059.91   2056.62   1869.23
   2615.44   2257.42   2179.44   2104.02   2240.44   2233.36   2132.01   2059.91   2056.62   1869.32
   2615.44   2257.42   2179.44   2104.02   2240.44   2233.36   2132.00   2059.91   2056.62   1869.41
   2615.44   2257.42   2179.44   2104.02   2240.44   2233.36   2132.00   2059.91   2056.62   1869.45
   2615.44   2257.42   2179.44   2104.02   2240.44   2233.36   2132.00   2059.91   2056.62   1869.52
   2615.44   2257.42   2179.44   2104.02   2240.44   2233.36   2132.00   2059.91   2056.62   1869.62
   2615.44   2257.42   2179.45   2104.02   2240.44   2233.36   2131.99   2059.92   2056.62   1869.65
   2615.44   2257.42   2179.45   2104.02   2240.44   2233.36   2131.99   2059.92   2056.62   1869.67
   2615.44   2257.42   2179.45   2104.02   2240.44   2233.36   2131.99   2059.92   2056.63   1869.72
   2615.44   2257.42   2179.47   2104.02   2240.44   2233.36   2131.98   2059.92   2056.63   1869.77
   2615.45   2257.42   2179.52   2104.02   2240.44   2233.36   2131.98   2059.92   2056.63   1869.92
   2615.46   2257.43   2179.59   2104.02   2240.44   2233.36   2131.98   2059.92   2056.63   1871.43
   2615.47   2257.44   2179.60   2104.02   2240.44   2233.36   2131.97   2059.93   2056.63   1870.89
   2615.48   2257.45   2179.61   2104.02   2240.44   2233.36   2131.97   2059.93   2056.63   1870.24
   2615.49   2257.46   2179.61   2104.02   2240.44   2233.36   2131.97   2059.93   2056.63   1870.29
   2615.49   2257.46   2179.61   2104.03   2240.44   2233.36   2131.97   2059.93   2056.63   1870.16
   2615.49   2257.47   2179.61   2104.03   2240.44   2233.36   2131.96   2059.93   2056.63   1870.15
   2615.49   2257.47   2179.61   2104.03   2240.44   2233.36   2131.96   2059.93   2056.64   1870.14
   2615.49   2257.47   2179.61   2104.03   2240.44   2233.36   2131.96   2059.94   2056.64   1870.14
   2615.49   2257.47   2179.61   2104.03   2240.44   2233.36   2131.95   2059.94   2056.64   1870.14
   2615.49   2257.47   2179.61   2104.03   2240.44   2233.36   2131.95   2059.94   2056.64   1870.14
   2615.49   2257.47   2179.61   2104.03   2240.44   2233.36   2131.95   2059.94   2056.64   1870.14
   2615.49   2257.47   2179.61   2104.03   2240.44   2233.36   2131.95   2059.94   2056.64   1870.14
   2615.49   2257.47   2179.61   2104.03   2240.45   2233.36   2131.94   2059.95   2056.64   1870.14
   2615.49   2257.47   2179.61   2104.03   2240.45   2233.36   2131.94   2059.95   2056.64   1870.14
   2615.49   2257.47   2179.61   2104.03   2240.45   2233.36   2131.94   2059.95   2056.64   1870.14
   2615.49   2257.47   2179.61   2104.03   2240.45   2233.36   2131.93   2059.95   2056.64   1870.34