# Discretization File created on 9/8/2020 by ModelMuse version 4.2.0.0.
# Animas MODFLOW model steady state for linking with APEX model
# developed by Seonggyu Park (Last modified: 08/27/2020)
# Upper left corner: (-1076792.75079734, 1719150.01173572)
# Lower left corner: (-1076792.75079734, 1588150.01173572)
# Upper right corner: (-1000792.75079734, 1719150.01173572)
# Lower right corner: (-1000792.75079734, 1588150.01173572)
# Grid angle (in degrees counterclockwise): 0
     1   131    76     1     4     2 # NLAY, NROW, NCOL, NPER, ITMUNI, LENUNI
     0 # LAYCB
CONSTANT     1.000000000000E+003  # DELR
CONSTANT     1.000000000000E+003  # DELC
INTERNAL 1.0 (FREE)       12 # TOP
 -3.056620839019E+004  -3.000974534969E+004  -2.896088593418E+004  -2.734955933420E+004  -2.510056453651E+004  -2.213335746455E+004  -1.836188337939E+004  -1.369447309771E+004  -8.033825608560E+003  -1.844677303604E+003 
  4.237114691026E+003   4.654981819814E+003   4.942017915949E+003   4.868080404028E+003   4.801566738930E+003   4.747451895564E+003   4.704237556189E+003   4.671098870322E+003   4.647210987480E+003   4.631749057182E+003 
  4.623888228943E+003   4.622803652283E+003   4.627670476718E+003   4.637663851766E+003   4.651958926944E+003   4.669730851771E+003   4.690154775762E+003   4.712405848437E+003   4.735659219311E+003   4.759090037904E+003 
  4.781873453732E+003   4.803184616312E+003   4.822198675163E+003   4.838090779802E+003   4.850036079746E+003   4.857209724512E+003   4.858786863619E+003   4.853942646583E+003   4.841852222923E+003   4.821690742155E+003 
  4.792633353797E+003   4.753855207367E+003   4.704531452383E+003   4.643837238360E+003   4.570947714818E+003   4.485038031273E+003   4.385283337244E+003   4.270858782246E+003   4.140939515799E+003   3.994700687420E+003 
  3.831317446625E+003   3.649964942933E+003   3.457296197230E+003   3.654525595491E+003   3.914843503340E+003   4.052197169829E+003   3.996948229511E+003   3.848211136390E+003   3.643069650447E+003   3.418607531659E+003 
  3.211908540007E+003   3.060056435469E+003   3.000134978025E+003   3.069227927654E+003   3.304419044335E+003   3.637487833333E+003   3.605447106300E+003   3.414667000000E+003   3.580403852158E+003   3.592403805704E+003 
  3.646980757576E+003   3.688902536272E+003   3.855856765597E+003   3.775536144169E+003   3.880449833792E+003   3.832234770053E+003 
 -2.828239550944E+004  -2.829527782195E+004  -2.790345463206E+004  -2.704045601850E+004  -2.563456015985E+004  -2.360850829378E+004  -2.087925169873E+004  -1.735774841618E+004  -1.294883194541E+004  -7.551179291340E+003 
 -1.625804594974E+003   4.192213791066E+003   4.596250535739E+003   4.869456247760E+003   4.794985581217E+003   4.729602702230E+003   4.675903935192E+003   4.633064429620E+003   4.600259335032E+003   4.576663800945E+003 
  4.561452976877E+003   4.553802012346E+003   4.552886056868E+003   4.557880259962E+003   4.567959771145E+003   4.582299739933E+003   4.600075315846E+003   4.620461648399E+003   4.642633887112E+003   4.665767181500E+003 
  4.689036681083E+003   4.711617535376E+003   4.732684893898E+003   4.751413906166E+003   4.766979721698E+003   4.778557490011E+003   4.785322360622E+003   4.786449483050E+003   4.781114006811E+003   4.768491081423E+003 
  4.747755856404E+003   4.718083481271E+003   4.678649105541E+003   4.628627878732E+003   4.567194950362E+003   4.493525469947E+003   4.406794587006E+003   4.306177451056E+003   4.190849211615E+003   4.059985018199E+003 
  3.912760020326E+003   3.748349367515E+003   3.565928209281E+003   3.479078755876E+003   3.600216122730E+003   3.704511504386E+003   3.779217086400E+003   3.917404984779E+003   3.900892000000E+003   3.859869500000E+003 
  3.616152586604E+003   3.222537093337E+003   3.006955177778E+003   3.059603428305E+003   3.332110689030E+003   3.713717668449E+003   3.640314074394E+003   3.545328237077E+003   3.759275211230E+003   3.748230588235E+003 
  3.709436939394E+003   3.632100651515E+003   3.786071806228E+003   3.985034201426E+003   3.985796915331E+003   3.906429083910E+003 
 -2.544078702706E+004  -2.590490712223E+004  -2.605073461138E+004  -2.581582072458E+004  -2.513241500962E+004  -2.392711262386E+004  -2.212051892195E+004  -1.962694751246E+004  -1.635417281115E+004  -1.220326387789E+004 
 -7.068532974120E+003  -1.406931886344E+003   4.147312891105E+003   4.537519251664E+003   4.796894579570E+003   4.722580644164E+003   4.657653021902E+003   4.604368269065E+003   4.561901535171E+003   4.529427969736E+003 
  4.506122722278E+003   4.491160942315E+003   4.483717779364E+003   4.482968382943E+003   4.488087902569E+003   4.498251487760E+003   4.512634288033E+003   4.530411452905E+003   4.550758131895E+003   4.572849474519E+003 
  4.595860630295E+003   4.618966748741E+003   4.641342979374E+003   4.662164471711E+003   4.680606375270E+003   4.695843839569E+003   4.707052014125E+003   4.713406048455E+003   4.714081092077E+003   4.708252294509E+003 
  4.695094805268E+003   4.673783773871E+003   4.643494349835E+003   4.603401682680E+003   4.552680921921E+003   4.490507217076E+003   4.416055717663E+003   4.328501573200E+003   4.227019933203E+003   4.110785947191E+003 
  3.978974764680E+003   3.830761535189E+003   3.665321408234E+003   3.481829533333E+003   3.284522342152E+003   3.523627347584E+003   3.750494012856E+003   3.984714704100E+003   3.838924685032E+003   3.518479849946E+003 
  3.234872846797E+003   3.096390421806E+003   3.151605926316E+003   3.275438894831E+003   3.317137793388E+003   3.813260829201E+003   3.750828639037E+003   3.645275472911E+003   3.873865168962E+003   3.737508442068E+003 
  3.730477404959E+003   3.600258356290E+003   3.804447895722E+003   3.876816966942E+003   3.814012664830E+003   3.851554893048E+003 
 -2.221275137569E+004  -2.300697097609E+004  -2.356737467146E+004  -2.383591257603E+004  -2.374926071740E+004  -2.323840778586E+004  -2.222824344082E+004  -2.063716207570E+004  -1.837670093887E+004  -1.535123766529E+004 
 -1.145777968571E+004  -6.585886656900E+003  -1.188059177715E+003   4.102411991144E+003   4.478787967589E+003   4.724332911381E+003   4.650192022504E+003   4.585717594841E+003   4.532844794079E+003   4.490748769736E+003 
  4.458604671327E+003   4.435587648372E+003   4.420872850388E+003   4.413635426892E+003   4.413050527401E+003   4.418293301433E+003   4.428538898506E+003   4.442962468137E+003   4.460739159843E+003   4.481044123142E+003 
  4.503052507552E+003   4.525939462589E+003   4.548880137773E+003   4.571049682619E+003   4.591623246645E+003   4.609775979369E+003   4.624683030309E+003   4.635519548981E+003   4.641460684904E+003   4.641681587595E+003 
  4.635357406571E+003   4.621663291349E+003   4.599774391448E+003   4.568865856385E+003   4.528112835677E+003   4.476690478842E+003   4.413773935397E+003   4.338538354859E+003   4.250158886747E+003   4.147810680578E+003 
  4.030668885868E+003   3.897908652137E+003   3.733786000000E+003   3.610694548536E+003   3.426240740642E+003   3.708838571166E+003   3.703701460973E+003   3.931307255793E+003   3.811977002755E+003   3.462041499541E+003 
  3.216938475045E+003   3.311444247934E+003   3.374794434343E+003   3.536337533868E+003   3.461479988062E+003   3.822977259872E+003   3.869393206774E+003   3.776671023875E+003   3.721740878788E+003   3.702935983957E+003 
  3.575490941230E+003   3.524974986226E+003   3.493865319073E+003   3.755109622590E+003   3.874870292011E+003   3.733618178253E+003 
 -1.878161966371E+004  -1.978245133360E+004  -2.063132658836E+004  -2.127491564873E+004  -2.165472285697E+004  -2.170662264317E+004  -2.136038092288E+004  -2.053917286493E+004  -1.915911285918E+004  -1.712881878295E+004 
 -1.434904052972E+004  -1.071239239264E+004  -6.103240339680E+003  -9.691864690852E+002   4.057511091184E+003   4.420056683514E+003   4.651771243192E+003   4.577819613130E+003   4.513796317940E+003   4.461333407127E+003 
  4.419606030208E+003   4.387789336701E+003   4.365058476122E+003   4.350588597990E+003   4.343554851822E+003   4.343132387135E+003   4.348496353448E+003   4.358821900276E+003   4.373284177139E+003   4.391058333553E+003 
  4.411319519035E+003   4.433242883104E+003   4.456003575277E+003   4.478776745071E+003   4.500737542004E+003   4.521061115594E+003   4.538922615357E+003   4.553497190811E+003   4.563959991474E+003   4.569486166863E+003 
  4.569250866496E+003   4.562429239890E+003   4.548196436562E+003   4.525727606031E+003   4.494197897814E+003   4.452782461427E+003   4.400656446390E+003   4.336995002218E+003   4.260973278430E+003   4.171766424543E+003 
  4.068549590074E+003   3.765624536629E+003   3.923255719912E+003   3.691215016934E+003   3.606034290657E+003   3.847358989305E+003   3.854677713012E+003   3.844804352076E+003   3.605174852941E+003   3.403381122995E+003 
  3.359027529412E+003   3.569721734403E+003   3.524988762032E+003   3.638805287197E+003   3.604355789661E+003   3.639661442959E+003   3.791909228374E+003   3.915413175579E+003   3.866981497326E+003   3.725730365917E+003 
  3.754370598039E+003   3.700078938503E+003   3.392325653114E+003   3.700594291444E+003   3.971526652406E+003   3.877027911765E+003 
 -1.534272444243E+004  -1.642513516034E+004  -1.743414369389E+004  -1.832139123236E+004  -1.903354234504E+004  -1.951178240071E+004  -1.969128466099E+004  -1.950065443344E+004  -1.886136217813E+004  -1.768718349447E+004 
 -1.588367181964E+004  -1.334769979220E+004  -9.967117864735E+003  -5.620594022460E+003  -7.503137604555E+002   4.012610191223E+003   4.361325399439E+003   4.579209575003E+003   4.505463312936E+003   4.441889088093E+003 
  4.389834005103E+003   4.348473213482E+003   4.316981862749E+003   4.294535102421E+003   4.280308082015E+003   4.273475951049E+003   4.273213859040E+003   4.278696955506E+003   4.289100389964E+003   4.303599311932E+003 
  4.321368870928E+003   4.341584216468E+003   4.363420498070E+003   4.386052865252E+003   4.408656467531E+003   4.430406454425E+003   4.450477975450E+003   4.468046180126E+003   4.482286217969E+003   4.492373238496E+003 
  4.497482391225E+003   4.496788825674E+003   4.489467691360E+003   4.474694137800E+003   4.451643314513E+003   4.419490371015E+003   4.377410456824E+003   4.324578721457E+003   4.260170314433E+003   4.183360385268E+003 
  3.784673147541E+003   3.889886867105E+003   3.909589344764E+003   3.704255516988E+003   3.761254071301E+003   3.907895622590E+003   3.908815212121E+003   3.699841661319E+003   3.494733048669E+003   3.438489752984E+003 
  3.590511750446E+003   3.767308193756E+003   3.632482067952E+003   3.646250689840E+003   3.530728541781E+003   3.525204402204E+003   3.749651140820E+003   3.886026397613E+003   3.912820529844E+003   3.782390252228E+003 
  3.775152544536E+003   3.599101918274E+003   3.396588122103E+003   3.564248005510E+003   3.842035213958E+003   3.870236289661E+003 
 -1.210325474616E+004  -1.314158977358E+004  -1.418109550744E+004  -1.517855170827E+004  -1.608602897428E+004  -1.685036195663E+004  -1.741257770192E+004  -1.770728253807E+004  -1.766201475680E+004  -1.719657575893E+004 
 -1.622235977921E+004  -1.464171231934E+004  -1.234736054388E+004  -9.221975629984E+003  -5.137947705240E+003  -5.314410518259E+002   3.967709291262E+003   4.302594115364E+003   4.506647906814E+003   4.433123018816E+003 
  4.369995802193E+003   4.318346484900E+003   4.277350216451E+003   4.246182146367E+003   4.224017424162E+003   4.210031199356E+003   4.203398621466E+003   4.203294840009E+003   4.208895004503E+003   4.219374264464E+003 
  4.233907769412E+003   4.251670668862E+003   4.271838112333E+003   4.293585249342E+003   4.316087229407E+003   4.338519202045E+003   4.360056316773E+003   4.379873723109E+003   4.397146570571E+003   4.411050008676E+003 
  4.420759186941E+003   4.425449254885E+003   4.424295362023E+003   4.416472657875E+003   4.401156291957E+003   4.377521413787E+003   4.344743172882E+003   4.301996718760E+003   4.248457200939E+003   3.915857142857E+003 
  3.937926987952E+003   3.875580332442E+003   3.911983287420E+003   3.810725196511E+003   3.873391499109E+003   3.930645608815E+003   3.800115020202E+003   3.542426620321E+003   3.366236874197E+003   3.512296889807E+003 
  3.687458940285E+003   3.539278602388E+003   3.519996050505E+003   3.415322238859E+003   3.371418380165E+003   3.539577775023E+003   3.858886781640E+003   3.754645917355E+003   3.814521889807E+003   3.829426758467E+003 
  3.796390969697E+003   3.693370133150E+003   3.332835914438E+003   3.517597907254E+003   3.876452977961E+003   3.938752850267E+003 
 -9.281895301210E+003  -1.015091529056E+004  -1.109105531941E+004  -1.206430707482E+004  -1.302829225462E+004  -1.393572742593E+004  -1.473383154296E+004  -1.536367539503E+004  -1.575947515712E+004  -1.584783662569E+004 
 -1.554696318588E+004  -1.476584975109E+004  -1.340349764503E+004  -1.134820254224E+004  -8.476989998880E+003  -4.655301388020E+003  -3.125683431963E+002   3.922808391302E+003   4.243862831290E+003   4.434086238625E+003 
  4.360798627663E+003   4.298116357135E+003   4.246870743411E+003   4.206236936009E+003   4.175390084447E+003   4.153505338240E+003   4.139757846908E+003   4.133322759967E+003   4.133375226936E+003   4.139090397331E+003 
  4.149643420670E+003   4.164209446470E+003   4.181963624250E+003   4.202081103525E+003   4.223737033815E+003   4.246106564637E+003   4.268364845507E+003   4.289687025944E+003   4.309248255464E+003   4.326223683586E+003 
  4.339788459827E+003   4.349117733704E+003   4.353386654735E+003   4.351770372437E+003   4.343444036328E+003   4.327582795926E+003   4.303361800747E+003   4.269956200309E+003   3.851270284654E+003   3.578609504983E+003 
  3.671365681818E+003   3.801834053633E+003   3.939454229947E+003   3.912329052585E+003   3.950580037197E+003   3.748594935829E+003   3.474856997326E+003   3.301096490484E+003   3.404403166667E+003   3.590409458111E+003 
  3.779234013841E+003   3.550257355615E+003   3.277383444742E+003   3.319315649654E+003   3.324846206774E+003   3.541885500891E+003   3.811232388408E+003   3.809971301248E+003   3.625130956328E+003   3.561599382353E+003 
  3.739558755793E+003   3.605507087344E+003   3.309638980969E+003   3.793218301248E+003   3.819897840463E+003   4.025277457612E+003 
 -7.108218538833E+003  -7.684236512714E+003  -8.396116080834E+003  -9.211031936330E+003  -1.009218943464E+004  -1.099829762315E+004  -1.188297534995E+004  -1.269408569616E+004  -1.337299573834E+004  -1.385376172145E+004 
 -1.406224469037E+004  -1.391516926735E+004  -1.331914957358E+004  -1.216972251390E+004  -1.035045119778E+004  -7.732191622988E+003  -4.172655070800E+003  -9.369563456665E+001   3.877907491341E+003   4.185131547215E+003 
  4.361524570436E+003   4.288490036371E+003   4.226250649812E+003   4.175406677532E+003   4.135133269050E+003   4.104605573883E+003   4.082998741548E+003   4.069487921563E+003   4.063248263446E+003   4.063454916714E+003 
  4.069283030884E+003   4.079907755474E+003   4.094504240001E+003   4.112247633984E+003   4.132313086938E+003   4.153875748383E+003   4.176110767834E+003   4.198193294811E+003   4.219298478830E+003   4.238601469408E+003 
  4.255277416064E+003   4.268501468315E+003   4.277448775677E+003   4.281294487670E+003   4.279213753809E+003   4.270381723614E+003   4.253973546600E+003   3.779199763401E+003   3.576558813619E+003   3.192951752000E+003 
  3.241340309458E+003   3.425834040998E+003   3.892336749311E+003   3.933135359963E+003   3.817099517825E+003   3.687043431589E+003   3.453431677686E+003   3.198770919786E+003   3.424947952250E+003   3.719166696052E+003 
  3.682665536542E+003   3.440647221304E+003   3.205387090909E+003   3.551812243315E+003   3.468125676768E+003   3.640842494031E+003   3.907440831551E+003   3.789792557392E+003   3.536423949495E+003   3.316991994652E+003 
  3.314466942149E+003   3.188408057851E+003   3.353368764706E+003   3.854994518825E+003   4.005703986226E+003   3.944430434938E+003 
 -5.821800593258E+003  -5.983898304444E+003  -6.340890517934E+003  -6.864999723462E+003  -7.524927388261E+003  -8.285351357824E+003  -9.106350295404E+003  -9.942746818880E+003  -1.074336150694E+004  -1.145017145518E+004 
 -1.199737012607E+004  -1.231033065060E+004  -1.230448360998E+004  -1.188413413830E+004  -1.094126385822E+004  -9.354393010645E+003  -6.987619705062E+003  -3.690008753580E+003   1.251770740630E+002   3.833006591380E+003 
  4.126400263140E+003   4.288962902247E+003   4.216197141835E+003   4.154398577117E+003   4.103954184155E+003   4.064039112467E+003   4.033828511569E+003   4.012497530980E+003   3.999221320217E+003   3.993175028796E+003 
  3.993533806237E+003   3.999472802056E+003   4.010167165771E+003   4.024792046899E+003   4.042522594958E+003   4.062533959465E+003   4.084001289938E+003   4.106099735894E+003   4.128004446850E+003   4.148890572325E+003 
  4.167933261835E+003   4.184307664899E+003   4.197188931033E+003   4.205752209755E+003   4.209172650583E+003   4.206625403034E+003   3.712450869026E+003   3.535620186795E+003   3.350899250000E+003   3.230681934509E+003 
  3.179404779614E+003   3.312407363636E+003   3.610811972452E+003   3.797347120294E+003   3.784362316399E+003   3.730075828283E+003   3.515778497704E+003   3.173775967023E+003   3.458388154270E+003   3.661374515152E+003 
  3.533608040107E+003   3.223486859504E+003   3.328990224977E+003   3.716426377897E+003   3.567421294766E+003   3.766569762167E+003   3.714270704991E+003   3.531051128558E+003   3.467226992654E+003   3.638145157754E+003 
  3.476183636364E+003   3.078142261708E+003   3.518751344920E+003   3.879375682277E+003   3.948422044995E+003   3.776591029412E+003 
 -5.133226553265E+003  -5.157985544875E+003  -5.180060434828E+003  -5.285432869949E+003  -5.588255035008E+003  -6.060403654577E+003  -6.668317256429E+003  -7.373765666677E+003  -8.133127085828E+003  -8.896554989970E+003 
 -9.607023753721E+003  -1.019924460202E+004  -1.059844906770E+004  -1.071904712768E+004  -1.046318381986E+004  -9.719244391053E+003  -8.360397706156E+003  -6.243325201989E+003  -3.207362436360E+003   3.440497826926E+002 
  3.788105691420E+003   4.067668979065E+003   4.216401234058E+003   4.143919840946E+003   4.082560035944E+003   4.032513160174E+003   3.992954363153E+003   3.963058794399E+003   3.942001603429E+003   3.928957939761E+003 
  3.923102952912E+003   3.923611792399E+003   3.929659607741E+003   3.940421548455E+003   3.955072764057E+003   3.972788404066E+003   3.992743618000E+003   4.014113555374E+003   4.036073365708E+003   4.057798198519E+003 
  4.078463203323E+003   4.097243529639E+003   4.113314326984E+003   4.125850744876E+003   4.134027932831E+003   3.651721305839E+003   3.652845611111E+003   3.354315048417E+003   3.288349636856E+003   3.546199180036E+003 
  3.309757786987E+003   3.549096219723E+003   3.716919980392E+003   3.494748192513E+003   3.383584478374E+003   3.334426540107E+003   3.296747020499E+003   3.156361854671E+003   3.419994509804E+003   3.648678786988E+003 
  3.406414532007E+003   3.135092839572E+003   3.365389808378E+003   3.771014781142E+003   3.873212729055E+003   3.852162298574E+003   3.891143698962E+003   3.819150334225E+003   3.803257336007E+003   3.571070067474E+003 
  3.133355631907E+003   3.075190491087E+003   3.466943853806E+003   3.647435872549E+003   3.869790132799E+003   3.832993790657E+003 
 -4.481796572430E+003  -4.501732433048E+003  -4.518767564535E+003  -4.532999449254E+003  -4.544525569567E+003  -4.602075933086E+003  -4.850324597098E+003  -5.270448306060E+003  -5.826269586163E+003  -6.476128391229E+003 
 -7.171956878056E+003  -7.858201140526E+003  -8.470573808718E+003  -8.934626538143E+003  -9.164142092056E+003  -9.059365226297E+003  -8.505124593399E+003  -7.368950713467E+003  -5.499375582488E+003  -2.724716119140E+003 
  5.629224913222E+002   3.743204791459E+003   4.008937694990E+003   4.143839565869E+003   4.071658030600E+003   4.010734923188E+003   3.961083502483E+003   3.921878918003E+003   3.892296319266E+003   3.871510855789E+003 
  3.858697677090E+003   3.853031932686E+003   3.853688772094E+003   3.859843344832E+003   3.870670800418E+003   3.885346288369E+003   3.903044958202E+003   3.922941959436E+003   3.944212441586E+003   3.966031554172E+003 
  3.987574446710E+003   4.008016268718E+003   4.026532169714E+003   4.042297299214E+003   3.593827701911E+003   3.473710261745E+003   3.678419958011E+003   3.560639235996E+003   3.433795028520E+003   3.729208191919E+003 
  3.490812498623E+003   3.838341277184E+003   3.660911100092E+003   3.474938809917E+003   3.370925691622E+003   3.300166857668E+003   3.175219505050E+003   3.156279514260E+003   3.490112672176E+003   3.578079146005E+003 
  3.299964338681E+003   3.093370778696E+003   3.381120453627E+003   3.740911008021E+003   3.802919128558E+003   3.693142892562E+003   3.889249695187E+003   3.841374434343E+003   3.683699102847E+003   3.286917994652E+003 
  2.989994774105E+003   3.198109719008E+003   3.339055424242E+003   3.447209370064E+003   3.832475287420E+003   3.934166692513E+003 
 -3.865057552342E+003  -3.880651676353E+003  -3.893128443760E+003  -3.902585336924E+003  -3.909119838210E+003  -3.912829429980E+003  -3.913811594597E+003  -3.933945701554E+003  -4.127116087759E+003  -4.495133677910E+003 
 -4.998762194556E+003  -5.592235550026E+003  -6.222047194518E+003  -6.825520609731E+003  -7.329137097623E+003  -7.646607274921E+003  -7.676694487986E+003  -7.300839023769E+003  -6.380702079238E+003  -4.755862096485E+003 
 -2.242069801920E+003   7.817951999519E+002   3.698303891498E+003   3.950206410915E+003   4.071277897680E+003   3.999411607690E+003   3.938923135741E+003   3.889665107975E+003   3.850812673911E+003   3.821540983065E+003 
  3.801025184955E+003   3.788440429098E+003   3.782961865012E+003   3.783764642215E+003   3.790023910224E+003   3.800914818556E+003   3.815612516729E+003   3.833292154260E+003   3.853128880667E+003   3.874297845467E+003 
  3.895974198179E+003   3.917333088318E+003   3.937549665404E+003   3.537746398195E+003   3.216418239577E+003   3.361624150987E+003   3.516841013774E+003   3.807739552801E+003   3.659173710339E+003   3.930037846648E+003 
  3.865660201102E+003   3.787188625668E+003   3.710113122130E+003   3.696777558310E+003   3.538540999109E+003   3.567400441690E+003   3.212591829201E+003   3.154437871658E+003   3.585413973370E+003   3.588809991736E+003 
  3.232397115864E+003   3.044190444444E+003   3.282708608815E+003   3.672183131016E+003   3.619009491276E+003   3.547915077135E+003   3.734660530303E+003   3.531388044077E+003   3.313159309458E+003   3.021286054367E+003 
  3.187745280989E+003   3.219393221304E+003   3.639914370766E+003   3.578281658402E+003   3.789874378329E+003   3.897350573084E+003 
 -3.281939727699E+003  -3.293673509489E+003  -3.302073307201E+003  -3.307236603197E+003  -3.309260879841E+003  -3.308243619496E+003  -3.304282304524E+003  -3.297474417290E+003  -3.287917440155E+003  -3.281203843199E+003 
 -3.418652864476E+003  -3.734459770127E+003  -4.185763642124E+003  -4.721794384289E+003  -5.282246024340E+003  -5.795326038270E+003  -6.175444631263E+003  -6.320530017895E+003  -6.109003807000E+003  -5.396542366106E+003 
 -4.012911250151E+003  -1.759423484700E+003   1.000667908581E+003   3.653402991538E+003   3.891475126840E+003   3.998716229491E+003   3.927180469109E+003   3.867124570497E+003   3.818257873545E+003   3.779755527769E+003 
  3.750792682688E+003   3.730544487818E+003   3.718186092678E+003   3.712892646785E+003   3.713839299656E+003   3.720201200809E+003   3.731153499761E+003   3.745871346029E+003   3.763529889132E+003   3.783304278587E+003 
  3.804369663911E+003   3.825901194622E+003   3.485096448772E+003   3.212314794735E+003   3.118268544118E+003   3.273544524221E+003   3.502962270054E+003   3.843673087344E+003   3.907196261246E+003   3.845539589127E+003 
  3.759948373440E+003   3.701212809689E+003   3.560891291444E+003   3.773608434046E+003   3.564503192042E+003   3.385270389483E+003   3.233232343137E+003   3.021984761246E+003   3.240812139038E+003   3.403725895722E+003 
  3.373444599481E+003   3.034437543672E+003   3.177392596257E+003   3.474444099481E+003   3.239742871658E+003   3.269796652407E+003   3.304548595156E+003   3.128545093583E+003   2.988033179144E+003   3.271411602076E+003 
  3.526590676471E+003   3.518619973262E+003   3.482765442907E+003   3.779574226381E+003   3.755123604278E+003   3.846424879758E+003 
 -2.731373333201E+003  -2.739728167155E+003  -2.744532389557E+003  -2.745883482771E+003  -2.743878929158E+003  -2.738616211083E+003  -2.730192810908E+003  -2.718706210997E+003  -2.704253893712E+003  -2.686933341417E+003 
 -2.666842036474E+003  -2.644077461247E+003  -2.724968189855E+003  -2.988426582711E+003  -3.387227843659E+003  -3.864369229231E+003  -4.350812532069E+003  -4.762726536721E+003  -4.998174315455E+003  -4.933242310286E+003 
 -4.417724562188E+003  -3.270703623269E+003  -1.276777167480E+003   1.219540617211E+003   3.608502091577E+003   3.832743842765E+003   3.926154561301E+003   3.854964511752E+003   3.795339124351E+003   3.746861696085E+003 
  3.708707376472E+003   3.680051315029E+003   3.660068661274E+003   3.647934564724E+003   3.642824174897E+003   3.643912641310E+003   3.650375113481E+003   3.661386740927E+003   3.676122673165E+003   3.693758059714E+003 
  3.713468050090E+003   3.439505307581E+003   3.408805000000E+003   3.381408140940E+003   3.211307437795E+003   3.164539437611E+003   3.485065432507E+003   3.865098291093E+003   3.951780186274E+003   3.770256007346E+003 
  3.610029670340E+003   3.374456252228E+003   3.190608561065E+003   3.338851430670E+003   3.215970212121E+003   3.019556800735E+003   3.031504993572E+003   3.009908213904E+003   2.946041428834E+003   3.029736029385E+003 
  3.315435139929E+003   3.132314428834E+003   2.965357454546E+003   3.011731122103E+003   2.926616772268E+003   2.952255361800E+003   3.034768544563E+003   3.116945306703E+003   3.113599258953E+003   3.461110876114E+003 
  3.826314588613E+003   3.855293682277E+003   3.672813468806E+003   3.707241138659E+003   3.795344409550E+003   3.881349418895E+003 
 -2.212288603547E+003  -2.217745884050E+003  -2.219435925528E+003  -2.217456210344E+003  -2.211904220861E+003  -2.202877439441E+003  -2.190473348449E+003  -2.174789430246E+003  -2.155923167197E+003  -2.133972041663E+003 
 -2.109033536009E+003  -2.081205132596E+003  -2.050584313789E+003  -2.017268561950E+003  -2.046111103050E+003  -2.257034115663E+003  -2.603084419366E+003  -3.019282352079E+003  -3.424987426503E+003  -3.719824405425E+003 
 -3.778714699737E+003  -3.446067967735E+003  -2.529506152169E+003  -7.941308502601E+002   1.438413325841E+003   3.563601191617E+003   3.774012558691E+003   3.853592893112E+003   3.782763632511E+003   3.723566694195E+003 
  3.675476472490E+003   3.637668116913E+003   3.609316776983E+003   3.589597602216E+003   3.577685742130E+003   3.572756346243E+003   3.573984564072E+003   3.580545545134E+003   3.591614438948E+003   3.606366395030E+003 
  3.406777633276E+003   3.646925947368E+003   3.673111470833E+003   3.532331214876E+003   3.611062047750E+003   3.372938844920E+003   3.515056305785E+003   3.922889561983E+003   3.975179960784E+003   3.877645339761E+003 
  3.716339093664E+003   3.236117627451E+003   3.201345114784E+003   3.103534231405E+003   3.114142672014E+003   3.355645701561E+003   3.488900132231E+003   3.383090993761E+003   3.083479845730E+003   2.969026266299E+003 
  2.949691986631E+003   2.900447848485E+003   2.844518474747E+003   2.961199232620E+003   3.136998066116E+003   3.213297465565E+003   3.211230914438E+003   3.557647492195E+003   3.350776993572E+003   3.163147415330E+003 
  3.538976584022E+003   3.866894870523E+003   3.769230174688E+003   3.639685738292E+003   3.893521708907E+003   3.828651240642E+003 
 -1.723615773435E+003  -1.726656894873E+003  -1.725714149813E+003  -1.720885020617E+003  -1.712266989648E+003  -1.699957539269E+003  -1.684054151845E+003  -1.664654309736E+003  -1.641855495307E+003  -1.615755190921E+003 
 -1.586450878940E+003  -1.554040041728E+003  -1.518620161648E+003  -1.480288721063E+003  -1.439143202335E+003  -1.395281087829E+003  -1.382157027580E+003  -1.540282368982E+003  -1.833220264219E+003  -2.185419116131E+003 
 -2.500125261852E+003  -2.653015047354E+003  -2.484315905927E+003  -1.789730610660E+003  -3.114845330401E+002   1.657286034470E+003   3.518700291656E+003   3.715281274616E+003   3.781031224923E+003   3.710577728281E+003 
  3.651807176924E+003   3.604102099653E+003   3.566637645987E+003   3.538588965442E+003   3.519131207537E+003   3.507439521790E+003   3.502689057716E+003   3.504054964835E+003   3.510712392663E+003   3.395026286495E+003 
  3.535998972732E+003   3.506265148515E+003   3.758472724914E+003   3.895079804813E+003   3.916953623886E+003   3.680013270761E+003   3.676686907308E+003   3.855758891266E+003   3.807354759516E+003   3.588510127451E+003 
  3.338114928699E+003   3.285363288062E+003   3.579745678253E+003   3.474173621212E+003   3.427553017301E+003   3.628705658645E+003   3.630165448307E+003   3.264104845156E+003   3.384329866310E+003   3.307631882353E+003 
  3.035146371972E+003   2.833507055258E+003   3.006384734403E+003   3.310682944637E+003   3.455558340463E+003   3.507209153298E+003   3.277055108997E+003   3.713422377005E+003   3.721976083779E+003   3.222110673875E+003 
  3.492698022282E+003   3.827838426025E+003   3.804322476644E+003   3.671962341355E+003   3.871578026738E+003   3.829219941176E+003 
 -1.264285077564E+003  -1.265391434323E+003  -1.262297297110E+003  -1.255100148287E+003  -1.243897470218E+003  -1.228786745266E+003  -1.209865455795E+003  -1.187231084166E+003  -1.160981112743E+003  -1.131213023890E+003 
 -1.098024299968E+003  -1.061512423342E+003  -1.021774876374E+003  -9.789091414277E+002  -9.330127008657E+002  -8.841830370510E+002  -8.325176323470E+002  -7.781139691165E+002  -7.332282627778E+002  -8.381713426684E+002 
 -1.077441350608E+003  -1.360809524579E+003  -1.567765860630E+003  -1.536800519316E+003  -1.052046877755E+003   1.711617841799E+002   1.876158743100E+003   3.473799391695E+003   3.656549990541E+003   3.708469556734E+003 